                                  SEAWAT Version 4
      U.S. GEOLOGICAL SURVEY MODULAR FINITE-DIFFERENCE GROUND-WATER FLOW MODEL
                           VERSION 4.00.05 10/19/2012


 This model run combines GLOBAL and LIST output into this single file.

 GLOBAL LISTING FILE: henry.list
                         UNIT    2

 OPENING henry.dis
 FILE TYPE:DIS   UNIT   11   STATUS:OLD    
 FORMAT:FORMATTED              ACCESS:SEQUENTIAL          

 OPENING henry.bas
 FILE TYPE:BAS6   UNIT   13   STATUS:OLD    
 FORMAT:FORMATTED              ACCESS:SEQUENTIAL          

 OPENING henry.lpf
 FILE TYPE:LPF   UNIT   15   STATUS:OLD    
 FORMAT:FORMATTED              ACCESS:SEQUENTIAL          

 OPENING henry.wel
 FILE TYPE:WEL   UNIT   20   STATUS:OLD    
 FORMAT:FORMATTED              ACCESS:SEQUENTIAL          

 OPENING henry.pcg
 FILE TYPE:PCG   UNIT   27   STATUS:OLD    
 FORMAT:FORMATTED              ACCESS:SEQUENTIAL          

 OPENING henry.oc
 FILE TYPE:OC   UNIT   14   STATUS:OLD    
 FORMAT:FORMATTED              ACCESS:SEQUENTIAL          

 OPENING henry.btn
 FILE TYPE:BTN   UNIT   31   STATUS:OLD    
 FORMAT:FORMATTED              ACCESS:SEQUENTIAL          

 OPENING henry.adv
 FILE TYPE:ADV   UNIT   32   STATUS:OLD    
 FORMAT:FORMATTED              ACCESS:SEQUENTIAL          

 OPENING henry.dsp
 FILE TYPE:DSP   UNIT   33   STATUS:OLD    
 FORMAT:FORMATTED              ACCESS:SEQUENTIAL          

 OPENING henry.gcg
 FILE TYPE:GCG   UNIT   35   STATUS:OLD    
 FORMAT:FORMATTED              ACCESS:SEQUENTIAL          

 OPENING henry.ssm
 FILE TYPE:SSM   UNIT   34   STATUS:OLD    
 FORMAT:FORMATTED              ACCESS:SEQUENTIAL          

 OPENING henry.vdf
 FILE TYPE:VDF   UNIT   37   STATUS:OLD    
 FORMAT:FORMATTED              ACCESS:SEQUENTIAL          

 OPENING henry.cbc
 FILE TYPE:DATA(BINARY)   UNIT   53   STATUS:REPLACE
 FORMAT:BINARY                 ACCESS:SEQUENTIAL          

 OPENING henry.hds
 FILE TYPE:DATA(BINARY)   UNIT   51   STATUS:REPLACE
 FORMAT:BINARY                 ACCESS:SEQUENTIAL          

 THE FREE FORMAT OPTION HAS BEEN SELECTED

 DISCRETIZATION INPUT DATA READ FROM UNIT   11
 # DIS package for  SEAWAT, generated by Flopy.
   50 LAYERS         1 ROWS       100 COLUMNS
    1 STRESS PERIOD(S) IN SIMULATION
 MODEL TIME UNIT IS DAYS
 MODEL LENGTH UNIT IS METERS
  ----- 
 | M T | ## BTN for MT3DMS, generated by Flopy.                                          
 | 3 D | ##                                                                              
  ----- 
 THE TRANSPORT MODEL CONSISTS OF    50 LAYER(S)    1 ROW(S)  100 COLUMN(S)
 NUMBER OF STRESS PERIOD(S) FOR TRANSPORT SIMULATION =    1
 NUMBER OF ALL COMPONENTS INCLUDED IN SIMULATION =    1
 NUMBER OF MOBILE COMPONENTS INCLUDED IN SIMULATION =    1
 UNIT FOR TIME IS D   ;  UNIT FOR LENGTH IS M   ;  UNIT FOR MASS IS KG  
 OPTIONAL PACKAGES INCLUDED IN CURRENT SIMULATION:
  o ADV   ON UNIT 32
  o DSP   ON UNIT 33
  o SSM   ON UNIT 34
  o GCG   ON UNIT 35


 VDF -- VARIABLE DENSITY FLOW, VERSION 1, 2/13/2004
         INPUT READ FROM UNIT 37

 COUPLING BETWEEN FLOW AND TRANSPORT IS EXPLICIT
 VARIABLE-DENSITY WATER-TABLE CORRECTIONS NOT ADDED
 MT3DMS SPECIES USED IN EQUATION OF STATE FOR FLUID DENSITY:         -1
 AN UPSTREAM-WEIGHTED ALGORITHM IS USED TO CALCULATE FLUID DENSITY TERMS THAT CONSERVE MASS
 DENSITY EQUATION OF STATE
 RHO =    1000.000    
  + 0.7143     * ( CONC(   1) -  0.000     )



 FIRSTDT SPECIFIED BY USER IN THE VDF FILE IS:   0.1000000E-02
 THE GROUND-WATER TRANSPORT PROCESS IS INACTIVE

 THE OBSERVATION PROCESS IS INACTIVE
 THE SENSITIVITY PROCESS IS INACTIVE
 THE PARAMETER-ESTIMATION PROCESS IS INACTIVE

 MODE: FORWARD

  Confining bed flag for each layer:
   0   0   0   0   0   0   0   0   0   0   0   0   0   0   0   0   0   0   0   0
   0   0   0   0   0   0   0   0   0   0   0   0   0   0   0   0   0   0   0   0
   0   0   0   0   0   0   0   0   0   0

      45101  ELEMENTS OF GX ARRAY USED OUT OF      45101
       5000  ELEMENTS OF GZ ARRAY USED OUT OF       5000
       5000  ELEMENTS OF IG ARRAY USED OUT OF       5000

                     DELR =  10.00000    

                     DELC =  1.000000    

 TOP ELEVATION OF LAYER 1 =   500.000    

   MODEL LAYER BOTTOM EL. =   490.000     FOR LAYER   1

   MODEL LAYER BOTTOM EL. =   480.000     FOR LAYER   2

   MODEL LAYER BOTTOM EL. =   470.000     FOR LAYER   3

   MODEL LAYER BOTTOM EL. =   460.000     FOR LAYER   4

   MODEL LAYER BOTTOM EL. =   450.000     FOR LAYER   5

   MODEL LAYER BOTTOM EL. =   440.000     FOR LAYER   6

   MODEL LAYER BOTTOM EL. =   430.000     FOR LAYER   7

   MODEL LAYER BOTTOM EL. =   420.000     FOR LAYER   8

   MODEL LAYER BOTTOM EL. =   410.000     FOR LAYER   9

   MODEL LAYER BOTTOM EL. =   400.000     FOR LAYER  10

   MODEL LAYER BOTTOM EL. =   390.000     FOR LAYER  11

   MODEL LAYER BOTTOM EL. =   380.000     FOR LAYER  12

   MODEL LAYER BOTTOM EL. =   370.000     FOR LAYER  13

   MODEL LAYER BOTTOM EL. =   360.000     FOR LAYER  14

   MODEL LAYER BOTTOM EL. =   350.000     FOR LAYER  15

   MODEL LAYER BOTTOM EL. =   340.000     FOR LAYER  16

   MODEL LAYER BOTTOM EL. =   330.000     FOR LAYER  17

   MODEL LAYER BOTTOM EL. =   320.000     FOR LAYER  18

   MODEL LAYER BOTTOM EL. =   310.000     FOR LAYER  19

   MODEL LAYER BOTTOM EL. =   300.000     FOR LAYER  20

   MODEL LAYER BOTTOM EL. =   290.000     FOR LAYER  21

   MODEL LAYER BOTTOM EL. =   280.000     FOR LAYER  22

   MODEL LAYER BOTTOM EL. =   270.000     FOR LAYER  23

   MODEL LAYER BOTTOM EL. =   260.000     FOR LAYER  24

   MODEL LAYER BOTTOM EL. =   250.000     FOR LAYER  25

   MODEL LAYER BOTTOM EL. =   240.000     FOR LAYER  26

   MODEL LAYER BOTTOM EL. =   230.000     FOR LAYER  27

   MODEL LAYER BOTTOM EL. =   220.000     FOR LAYER  28

   MODEL LAYER BOTTOM EL. =   210.000     FOR LAYER  29

   MODEL LAYER BOTTOM EL. =   200.000     FOR LAYER  30

   MODEL LAYER BOTTOM EL. =   190.000     FOR LAYER  31

   MODEL LAYER BOTTOM EL. =   180.000     FOR LAYER  32

   MODEL LAYER BOTTOM EL. =   170.000     FOR LAYER  33

   MODEL LAYER BOTTOM EL. =   160.000     FOR LAYER  34

   MODEL LAYER BOTTOM EL. =   150.000     FOR LAYER  35

   MODEL LAYER BOTTOM EL. =   140.000     FOR LAYER  36

   MODEL LAYER BOTTOM EL. =   130.000     FOR LAYER  37

   MODEL LAYER BOTTOM EL. =   120.000     FOR LAYER  38

   MODEL LAYER BOTTOM EL. =   110.000     FOR LAYER  39

   MODEL LAYER BOTTOM EL. =  100.0000     FOR LAYER  40

   MODEL LAYER BOTTOM EL. =   90.0000     FOR LAYER  41

   MODEL LAYER BOTTOM EL. =   80.0000     FOR LAYER  42

   MODEL LAYER BOTTOM EL. =   70.0000     FOR LAYER  43

   MODEL LAYER BOTTOM EL. =   60.0000     FOR LAYER  44

   MODEL LAYER BOTTOM EL. =   50.0000     FOR LAYER  45

   MODEL LAYER BOTTOM EL. =   40.0000     FOR LAYER  46

   MODEL LAYER BOTTOM EL. =   30.0000     FOR LAYER  47

   MODEL LAYER BOTTOM EL. =   20.0000     FOR LAYER  48

   MODEL LAYER BOTTOM EL. =  10.00000     FOR LAYER  49

   MODEL LAYER BOTTOM EL. =   0.00000     FOR LAYER  50


 STRESS PERIOD     LENGTH       TIME STEPS     MULTIPLIER FOR DELT    SS FLAG
 ----------------------------------------------------------------------------
        1         7300.000        730                    1.000         TR

 TRANSIENT SIMULATION




 LPF1 -- LAYER PROPERTY FLOW PACKAGE, VERSION 1, 1/11/2000
         INPUT READ FROM UNIT   15
 # LPF package for  SEAWAT, generated by Flopy.
 CELL-BY-CELL FLOWS WILL BE SAVED ON UNIT   53
 HEAD AT CELLS THAT CONVERT TO DRY= -1.00000E+30
 No named parameters

   LAYER FLAGS:
 LAYER       LAYTYP        LAYAVG         CHANI        LAYVKA        LAYWET
 ---------------------------------------------------------------------------
    1             1             0     1.000E+00             0             0
    2             1             0     1.000E+00             0             0
    3             1             0     1.000E+00             0             0
    4             1             0     1.000E+00             0             0
    5             1             0     1.000E+00             0             0
    6             1             0     1.000E+00             0             0
    7             1             0     1.000E+00             0             0
    8             1             0     1.000E+00             0             0
    9             1             0     1.000E+00             0             0
   10             1             0     1.000E+00             0             0
   11             1             0     1.000E+00             0             0
   12             1             0     1.000E+00             0             0
   13             1             0     1.000E+00             0             0
   14             1             0     1.000E+00             0             0
   15             1             0     1.000E+00             0             0
   16             1             0     1.000E+00             0             0
   17             1             0     1.000E+00             0             0
   18             1             0     1.000E+00             0             0
   19             1             0     1.000E+00             0             0
   20             1             0     1.000E+00             0             0
   21             1             0     1.000E+00             0             0
   22             1             0     1.000E+00             0             0
   23             1             0     1.000E+00             0             0
   24             1             0     1.000E+00             0             0
   25             1             0     1.000E+00             0             0
   26             1             0     1.000E+00             0             0
   27             1             0     1.000E+00             0             0
   28             1             0     1.000E+00             0             0
   29             1             0     1.000E+00             0             0
   30             1             0     1.000E+00             0             0
   31             1             0     1.000E+00             0             0
   32             1             0     1.000E+00             0             0
   33             1             0     1.000E+00             0             0
   34             1             0     1.000E+00             0             0
   35             1             0     1.000E+00             0             0
   36             1             0     1.000E+00             0             0
   37             1             0     1.000E+00             0             0
   38             1             0     1.000E+00             0             0
   39             1             0     1.000E+00             0             0
   40             1             0     1.000E+00             0             0
   41             1             0     1.000E+00             0             0
   42             1             0     1.000E+00             0             0
   43             1             0     1.000E+00             0             0
   44             1             0     1.000E+00             0             0
   45             1             0     1.000E+00             0             0
   46             1             0     1.000E+00             0             0
   47             1             0     1.000E+00             0             0
   48             1             0     1.000E+00             0             0
   49             1             0     1.000E+00             0             0
   50             1             0     1.000E+00             0             0

   INTERPRETATION OF LAYER FLAGS:
                        INTERBLOCK     HORIZONTAL    DATA IN
         LAYER TYPE   TRANSMISSIVITY   ANISOTROPY   ARRAY VKA   WETTABILITY
 LAYER      (LAYTYP)      (LAYAVG)       (CHANI)      (LAYVKA)      (LAYWET)
 ---------------------------------------------------------------------------
    1   CONVERTIBLE      HARMONIC     1.000E+00    VERTICAL K  NON-WETTABLE
    2   CONVERTIBLE      HARMONIC     1.000E+00    VERTICAL K  NON-WETTABLE
    3   CONVERTIBLE      HARMONIC     1.000E+00    VERTICAL K  NON-WETTABLE
    4   CONVERTIBLE      HARMONIC     1.000E+00    VERTICAL K  NON-WETTABLE
    5   CONVERTIBLE      HARMONIC     1.000E+00    VERTICAL K  NON-WETTABLE
    6   CONVERTIBLE      HARMONIC     1.000E+00    VERTICAL K  NON-WETTABLE
    7   CONVERTIBLE      HARMONIC     1.000E+00    VERTICAL K  NON-WETTABLE
    8   CONVERTIBLE      HARMONIC     1.000E+00    VERTICAL K  NON-WETTABLE
    9   CONVERTIBLE      HARMONIC     1.000E+00    VERTICAL K  NON-WETTABLE
   10   CONVERTIBLE      HARMONIC     1.000E+00    VERTICAL K  NON-WETTABLE
   11   CONVERTIBLE      HARMONIC     1.000E+00    VERTICAL K  NON-WETTABLE
   12   CONVERTIBLE      HARMONIC     1.000E+00    VERTICAL K  NON-WETTABLE
   13   CONVERTIBLE      HARMONIC     1.000E+00    VERTICAL K  NON-WETTABLE
   14   CONVERTIBLE      HARMONIC     1.000E+00    VERTICAL K  NON-WETTABLE
   15   CONVERTIBLE      HARMONIC     1.000E+00    VERTICAL K  NON-WETTABLE
   16   CONVERTIBLE      HARMONIC     1.000E+00    VERTICAL K  NON-WETTABLE
   17   CONVERTIBLE      HARMONIC     1.000E+00    VERTICAL K  NON-WETTABLE
   18   CONVERTIBLE      HARMONIC     1.000E+00    VERTICAL K  NON-WETTABLE
   19   CONVERTIBLE      HARMONIC     1.000E+00    VERTICAL K  NON-WETTABLE
   20   CONVERTIBLE      HARMONIC     1.000E+00    VERTICAL K  NON-WETTABLE
   21   CONVERTIBLE      HARMONIC     1.000E+00    VERTICAL K  NON-WETTABLE
   22   CONVERTIBLE      HARMONIC     1.000E+00    VERTICAL K  NON-WETTABLE
   23   CONVERTIBLE      HARMONIC     1.000E+00    VERTICAL K  NON-WETTABLE
   24   CONVERTIBLE      HARMONIC     1.000E+00    VERTICAL K  NON-WETTABLE
   25   CONVERTIBLE      HARMONIC     1.000E+00    VERTICAL K  NON-WETTABLE
   26   CONVERTIBLE      HARMONIC     1.000E+00    VERTICAL K  NON-WETTABLE
   27   CONVERTIBLE      HARMONIC     1.000E+00    VERTICAL K  NON-WETTABLE
   28   CONVERTIBLE      HARMONIC     1.000E+00    VERTICAL K  NON-WETTABLE
   29   CONVERTIBLE      HARMONIC     1.000E+00    VERTICAL K  NON-WETTABLE
   30   CONVERTIBLE      HARMONIC     1.000E+00    VERTICAL K  NON-WETTABLE
   31   CONVERTIBLE      HARMONIC     1.000E+00    VERTICAL K  NON-WETTABLE
   32   CONVERTIBLE      HARMONIC     1.000E+00    VERTICAL K  NON-WETTABLE
   33   CONVERTIBLE      HARMONIC     1.000E+00    VERTICAL K  NON-WETTABLE
   34   CONVERTIBLE      HARMONIC     1.000E+00    VERTICAL K  NON-WETTABLE
   35   CONVERTIBLE      HARMONIC     1.000E+00    VERTICAL K  NON-WETTABLE
   36   CONVERTIBLE      HARMONIC     1.000E+00    VERTICAL K  NON-WETTABLE
   37   CONVERTIBLE      HARMONIC     1.000E+00    VERTICAL K  NON-WETTABLE
   38   CONVERTIBLE      HARMONIC     1.000E+00    VERTICAL K  NON-WETTABLE
   39   CONVERTIBLE      HARMONIC     1.000E+00    VERTICAL K  NON-WETTABLE
   40   CONVERTIBLE      HARMONIC     1.000E+00    VERTICAL K  NON-WETTABLE
   41   CONVERTIBLE      HARMONIC     1.000E+00    VERTICAL K  NON-WETTABLE
   42   CONVERTIBLE      HARMONIC     1.000E+00    VERTICAL K  NON-WETTABLE
   43   CONVERTIBLE      HARMONIC     1.000E+00    VERTICAL K  NON-WETTABLE
   44   CONVERTIBLE      HARMONIC     1.000E+00    VERTICAL K  NON-WETTABLE
   45   CONVERTIBLE      HARMONIC     1.000E+00    VERTICAL K  NON-WETTABLE
   46   CONVERTIBLE      HARMONIC     1.000E+00    VERTICAL K  NON-WETTABLE
   47   CONVERTIBLE      HARMONIC     1.000E+00    VERTICAL K  NON-WETTABLE
   48   CONVERTIBLE      HARMONIC     1.000E+00    VERTICAL K  NON-WETTABLE
   49   CONVERTIBLE      HARMONIC     1.000E+00    VERTICAL K  NON-WETTABLE
   50   CONVERTIBLE      HARMONIC     1.000E+00    VERTICAL K  NON-WETTABLE

      20000 ELEMENTS IN X ARRAY ARE USED BY LPF
        300 ELEMENTS IN IX ARRAY ARE USED BY LPF

 PCG2 -- CONJUGATE GRADIENT SOLUTION PACKAGE, VERSION 2.4, 12/29/98
 # PCG package for  SEAWAT, generated by Flopy.
 MAXIMUM OF     50 CALLS OF SOLUTION ROUTINE
 MAXIMUM OF     30 INTERNAL ITERATIONS PER CALL TO SOLUTION ROUTINE
 MATRIX PRECONDITIONING TYPE :    1
      13000 ELEMENTS IN X ARRAY ARE USED BY PCG
      10500 ELEMENTS IN IX ARRAY ARE USED BY PCG
      20000 ELEMENTS IN Z ARRAY ARE USED BY PCG

      33000  ELEMENTS OF X ARRAY USED OUT OF      33000
      20000  ELEMENTS OF Z ARRAY USED OUT OF      20000
      10800  ELEMENTS OF IX ARRAY USED OUT OF      10800
          0  ELEMENTS OF XHS ARRAY USED OUT OF          1



                                    SOLUTION BY THE CONJUGATE-GRADIENT METHOD
                                   -------------------------------------------
                    MAXIMUM NUMBER OF CALLS TO PCG ROUTINE =       50
                        MAXIMUM ITERATIONS PER CALL TO PCG =       30
                               MATRIX PRECONDITIONING TYPE =        1
        RELAXATION FACTOR (ONLY USED WITH PRECOND. TYPE 1) =    0.10000E+01
 PARAMETER OF POLYNOMIAL PRECOND. = 2 (2) OR IS CALCULATED :        0
                         HEAD CHANGE CRITERION FOR CLOSURE =    0.10000E-04
                     RESIDUAL CHANGE CRITERION FOR CLOSURE =    0.10000E-04
            PCG HEAD AND RESIDUAL CHANGE PRINTOUT INTERVAL =      999
     PRINTING FROM SOLVER IS LIMITED(1) OR SUPPRESSED (>1) =        3
                                         DAMPING PARAMETER =    0.10000E+01

 WETTING CAPABILITY IS NOT ACTIVE IN ANY LAYER

    HYD. COND. ALONG ROWS =  10.00000     FOR LAYER   1

      VERTICAL HYD. COND. =  10.00000     FOR LAYER   1

         SPECIFIC STORAGE =  1.000000E-04 FOR LAYER   1

           SPECIFIC YIELD =  0.150000     FOR LAYER   1

    HYD. COND. ALONG ROWS =  10.00000     FOR LAYER   2

      VERTICAL HYD. COND. =  10.00000     FOR LAYER   2

         SPECIFIC STORAGE =  1.000000E-04 FOR LAYER   2

           SPECIFIC YIELD =  0.150000     FOR LAYER   2

    HYD. COND. ALONG ROWS =  10.00000     FOR LAYER   3

      VERTICAL HYD. COND. =  10.00000     FOR LAYER   3

         SPECIFIC STORAGE =  1.000000E-04 FOR LAYER   3

           SPECIFIC YIELD =  0.150000     FOR LAYER   3

    HYD. COND. ALONG ROWS =  10.00000     FOR LAYER   4

      VERTICAL HYD. COND. =  10.00000     FOR LAYER   4

         SPECIFIC STORAGE =  1.000000E-04 FOR LAYER   4

           SPECIFIC YIELD =  0.150000     FOR LAYER   4

    HYD. COND. ALONG ROWS =  10.00000     FOR LAYER   5

      VERTICAL HYD. COND. =  10.00000     FOR LAYER   5

         SPECIFIC STORAGE =  1.000000E-04 FOR LAYER   5

           SPECIFIC YIELD =  0.150000     FOR LAYER   5

    HYD. COND. ALONG ROWS =  10.00000     FOR LAYER   6

      VERTICAL HYD. COND. =  10.00000     FOR LAYER   6

         SPECIFIC STORAGE =  1.000000E-04 FOR LAYER   6

           SPECIFIC YIELD =  0.150000     FOR LAYER   6

    HYD. COND. ALONG ROWS =  10.00000     FOR LAYER   7

      VERTICAL HYD. COND. =  10.00000     FOR LAYER   7

         SPECIFIC STORAGE =  1.000000E-04 FOR LAYER   7

           SPECIFIC YIELD =  0.150000     FOR LAYER   7

    HYD. COND. ALONG ROWS =  10.00000     FOR LAYER   8

      VERTICAL HYD. COND. =  10.00000     FOR LAYER   8

         SPECIFIC STORAGE =  1.000000E-04 FOR LAYER   8

           SPECIFIC YIELD =  0.150000     FOR LAYER   8

    HYD. COND. ALONG ROWS =  10.00000     FOR LAYER   9

      VERTICAL HYD. COND. =  10.00000     FOR LAYER   9

         SPECIFIC STORAGE =  1.000000E-04 FOR LAYER   9

           SPECIFIC YIELD =  0.150000     FOR LAYER   9

    HYD. COND. ALONG ROWS =  10.00000     FOR LAYER  10

      VERTICAL HYD. COND. =  10.00000     FOR LAYER  10

         SPECIFIC STORAGE =  1.000000E-04 FOR LAYER  10

           SPECIFIC YIELD =  0.150000     FOR LAYER  10

    HYD. COND. ALONG ROWS =  10.00000     FOR LAYER  11

      VERTICAL HYD. COND. =  10.00000     FOR LAYER  11

         SPECIFIC STORAGE =  1.000000E-04 FOR LAYER  11

           SPECIFIC YIELD =  0.150000     FOR LAYER  11

    HYD. COND. ALONG ROWS =  10.00000     FOR LAYER  12

      VERTICAL HYD. COND. =  10.00000     FOR LAYER  12

         SPECIFIC STORAGE =  1.000000E-04 FOR LAYER  12

           SPECIFIC YIELD =  0.150000     FOR LAYER  12

    HYD. COND. ALONG ROWS =  10.00000     FOR LAYER  13

      VERTICAL HYD. COND. =  10.00000     FOR LAYER  13

         SPECIFIC STORAGE =  1.000000E-04 FOR LAYER  13

           SPECIFIC YIELD =  0.150000     FOR LAYER  13

    HYD. COND. ALONG ROWS =  10.00000     FOR LAYER  14

      VERTICAL HYD. COND. =  10.00000     FOR LAYER  14

         SPECIFIC STORAGE =  1.000000E-04 FOR LAYER  14

           SPECIFIC YIELD =  0.150000     FOR LAYER  14

    HYD. COND. ALONG ROWS =  10.00000     FOR LAYER  15

      VERTICAL HYD. COND. =  10.00000     FOR LAYER  15

         SPECIFIC STORAGE =  1.000000E-04 FOR LAYER  15

           SPECIFIC YIELD =  0.150000     FOR LAYER  15

    HYD. COND. ALONG ROWS =  10.00000     FOR LAYER  16

      VERTICAL HYD. COND. =  10.00000     FOR LAYER  16

         SPECIFIC STORAGE =  1.000000E-04 FOR LAYER  16

           SPECIFIC YIELD =  0.150000     FOR LAYER  16

    HYD. COND. ALONG ROWS =  10.00000     FOR LAYER  17

      VERTICAL HYD. COND. =  10.00000     FOR LAYER  17

         SPECIFIC STORAGE =  1.000000E-04 FOR LAYER  17

           SPECIFIC YIELD =  0.150000     FOR LAYER  17

    HYD. COND. ALONG ROWS =  10.00000     FOR LAYER  18

      VERTICAL HYD. COND. =  10.00000     FOR LAYER  18

         SPECIFIC STORAGE =  1.000000E-04 FOR LAYER  18

           SPECIFIC YIELD =  0.150000     FOR LAYER  18

    HYD. COND. ALONG ROWS =  10.00000     FOR LAYER  19

      VERTICAL HYD. COND. =  10.00000     FOR LAYER  19

         SPECIFIC STORAGE =  1.000000E-04 FOR LAYER  19

           SPECIFIC YIELD =  0.150000     FOR LAYER  19

    HYD. COND. ALONG ROWS =  10.00000     FOR LAYER  20

      VERTICAL HYD. COND. =  10.00000     FOR LAYER  20

         SPECIFIC STORAGE =  1.000000E-04 FOR LAYER  20

           SPECIFIC YIELD =  0.150000     FOR LAYER  20

    HYD. COND. ALONG ROWS =  10.00000     FOR LAYER  21

      VERTICAL HYD. COND. =  10.00000     FOR LAYER  21

         SPECIFIC STORAGE =  1.000000E-04 FOR LAYER  21

           SPECIFIC YIELD =  0.150000     FOR LAYER  21

    HYD. COND. ALONG ROWS =  10.00000     FOR LAYER  22

      VERTICAL HYD. COND. =  10.00000     FOR LAYER  22

         SPECIFIC STORAGE =  1.000000E-04 FOR LAYER  22

           SPECIFIC YIELD =  0.150000     FOR LAYER  22

    HYD. COND. ALONG ROWS =  10.00000     FOR LAYER  23

      VERTICAL HYD. COND. =  10.00000     FOR LAYER  23

         SPECIFIC STORAGE =  1.000000E-04 FOR LAYER  23

           SPECIFIC YIELD =  0.150000     FOR LAYER  23

    HYD. COND. ALONG ROWS =  10.00000     FOR LAYER  24

      VERTICAL HYD. COND. =  10.00000     FOR LAYER  24

         SPECIFIC STORAGE =  1.000000E-04 FOR LAYER  24

           SPECIFIC YIELD =  0.150000     FOR LAYER  24

    HYD. COND. ALONG ROWS =  10.00000     FOR LAYER  25

      VERTICAL HYD. COND. =  10.00000     FOR LAYER  25

         SPECIFIC STORAGE =  1.000000E-04 FOR LAYER  25

           SPECIFIC YIELD =  0.150000     FOR LAYER  25

    HYD. COND. ALONG ROWS =  10.00000     FOR LAYER  26

      VERTICAL HYD. COND. =  10.00000     FOR LAYER  26

         SPECIFIC STORAGE =  1.000000E-04 FOR LAYER  26

           SPECIFIC YIELD =  0.150000     FOR LAYER  26

    HYD. COND. ALONG ROWS =  10.00000     FOR LAYER  27

      VERTICAL HYD. COND. =  10.00000     FOR LAYER  27

         SPECIFIC STORAGE =  1.000000E-04 FOR LAYER  27

           SPECIFIC YIELD =  0.150000     FOR LAYER  27

    HYD. COND. ALONG ROWS =  10.00000     FOR LAYER  28

      VERTICAL HYD. COND. =  10.00000     FOR LAYER  28

         SPECIFIC STORAGE =  1.000000E-04 FOR LAYER  28

           SPECIFIC YIELD =  0.150000     FOR LAYER  28

    HYD. COND. ALONG ROWS =  10.00000     FOR LAYER  29

      VERTICAL HYD. COND. =  10.00000     FOR LAYER  29

         SPECIFIC STORAGE =  1.000000E-04 FOR LAYER  29

           SPECIFIC YIELD =  0.150000     FOR LAYER  29

    HYD. COND. ALONG ROWS =  10.00000     FOR LAYER  30

      VERTICAL HYD. COND. =  10.00000     FOR LAYER  30

         SPECIFIC STORAGE =  1.000000E-04 FOR LAYER  30

           SPECIFIC YIELD =  0.150000     FOR LAYER  30

    HYD. COND. ALONG ROWS =  10.00000     FOR LAYER  31

      VERTICAL HYD. COND. =  10.00000     FOR LAYER  31

         SPECIFIC STORAGE =  1.000000E-04 FOR LAYER  31

           SPECIFIC YIELD =  0.150000     FOR LAYER  31

    HYD. COND. ALONG ROWS =  10.00000     FOR LAYER  32

      VERTICAL HYD. COND. =  10.00000     FOR LAYER  32

         SPECIFIC STORAGE =  1.000000E-04 FOR LAYER  32

           SPECIFIC YIELD =  0.150000     FOR LAYER  32

    HYD. COND. ALONG ROWS =  10.00000     FOR LAYER  33

      VERTICAL HYD. COND. =  10.00000     FOR LAYER  33

         SPECIFIC STORAGE =  1.000000E-04 FOR LAYER  33

           SPECIFIC YIELD =  0.150000     FOR LAYER  33

    HYD. COND. ALONG ROWS =  10.00000     FOR LAYER  34

      VERTICAL HYD. COND. =  10.00000     FOR LAYER  34

         SPECIFIC STORAGE =  1.000000E-04 FOR LAYER  34

           SPECIFIC YIELD =  0.150000     FOR LAYER  34

    HYD. COND. ALONG ROWS =  10.00000     FOR LAYER  35

      VERTICAL HYD. COND. =  10.00000     FOR LAYER  35

         SPECIFIC STORAGE =  1.000000E-04 FOR LAYER  35

           SPECIFIC YIELD =  0.150000     FOR LAYER  35

    HYD. COND. ALONG ROWS =  10.00000     FOR LAYER  36

      VERTICAL HYD. COND. =  10.00000     FOR LAYER  36

         SPECIFIC STORAGE =  1.000000E-04 FOR LAYER  36

           SPECIFIC YIELD =  0.150000     FOR LAYER  36

    HYD. COND. ALONG ROWS =  10.00000     FOR LAYER  37

      VERTICAL HYD. COND. =  10.00000     FOR LAYER  37

         SPECIFIC STORAGE =  1.000000E-04 FOR LAYER  37

           SPECIFIC YIELD =  0.150000     FOR LAYER  37

    HYD. COND. ALONG ROWS =  10.00000     FOR LAYER  38

      VERTICAL HYD. COND. =  10.00000     FOR LAYER  38

         SPECIFIC STORAGE =  1.000000E-04 FOR LAYER  38

           SPECIFIC YIELD =  0.150000     FOR LAYER  38

    HYD. COND. ALONG ROWS =  10.00000     FOR LAYER  39

      VERTICAL HYD. COND. =  10.00000     FOR LAYER  39

         SPECIFIC STORAGE =  1.000000E-04 FOR LAYER  39

           SPECIFIC YIELD =  0.150000     FOR LAYER  39

    HYD. COND. ALONG ROWS =  10.00000     FOR LAYER  40

      VERTICAL HYD. COND. =  10.00000     FOR LAYER  40

         SPECIFIC STORAGE =  1.000000E-04 FOR LAYER  40

           SPECIFIC YIELD =  0.150000     FOR LAYER  40

    HYD. COND. ALONG ROWS =  10.00000     FOR LAYER  41

      VERTICAL HYD. COND. =  10.00000     FOR LAYER  41

         SPECIFIC STORAGE =  1.000000E-04 FOR LAYER  41

           SPECIFIC YIELD =  0.150000     FOR LAYER  41

    HYD. COND. ALONG ROWS =  10.00000     FOR LAYER  42

      VERTICAL HYD. COND. =  10.00000     FOR LAYER  42

         SPECIFIC STORAGE =  1.000000E-04 FOR LAYER  42

           SPECIFIC YIELD =  0.150000     FOR LAYER  42

    HYD. COND. ALONG ROWS =  10.00000     FOR LAYER  43

      VERTICAL HYD. COND. =  10.00000     FOR LAYER  43

         SPECIFIC STORAGE =  1.000000E-04 FOR LAYER  43

           SPECIFIC YIELD =  0.150000     FOR LAYER  43

    HYD. COND. ALONG ROWS =  10.00000     FOR LAYER  44

      VERTICAL HYD. COND. =  10.00000     FOR LAYER  44

         SPECIFIC STORAGE =  1.000000E-04 FOR LAYER  44

           SPECIFIC YIELD =  0.150000     FOR LAYER  44

    HYD. COND. ALONG ROWS =  10.00000     FOR LAYER  45

      VERTICAL HYD. COND. =  10.00000     FOR LAYER  45

         SPECIFIC STORAGE =  1.000000E-04 FOR LAYER  45

           SPECIFIC YIELD =  0.150000     FOR LAYER  45

    HYD. COND. ALONG ROWS =  10.00000     FOR LAYER  46

      VERTICAL HYD. COND. =  10.00000     FOR LAYER  46

         SPECIFIC STORAGE =  1.000000E-04 FOR LAYER  46

           SPECIFIC YIELD =  0.150000     FOR LAYER  46

    HYD. COND. ALONG ROWS =  10.00000     FOR LAYER  47

      VERTICAL HYD. COND. =  10.00000     FOR LAYER  47

         SPECIFIC STORAGE =  1.000000E-04 FOR LAYER  47

           SPECIFIC YIELD =  0.150000     FOR LAYER  47

    HYD. COND. ALONG ROWS =  10.00000     FOR LAYER  48

      VERTICAL HYD. COND. =  10.00000     FOR LAYER  48

         SPECIFIC STORAGE =  1.000000E-04 FOR LAYER  48

           SPECIFIC YIELD =  0.150000     FOR LAYER  48

    HYD. COND. ALONG ROWS =  10.00000     FOR LAYER  49

      VERTICAL HYD. COND. =  10.00000     FOR LAYER  49

         SPECIFIC STORAGE =  1.000000E-04 FOR LAYER  49

           SPECIFIC YIELD =  0.150000     FOR LAYER  49

    HYD. COND. ALONG ROWS =  10.00000     FOR LAYER  50

      VERTICAL HYD. COND. =  10.00000     FOR LAYER  50

         SPECIFIC STORAGE =  1.000000E-04 FOR LAYER  50

           SPECIFIC YIELD =  0.150000     FOR LAYER  50
 BTN5 -- BASIC TRANSPORT PACKAGE, VERSION 5, OCTOBER 2006, INPUT READ FROM UNIT 31
      75302 ELEMENTS OF THE  X ARRAY USED BY THE BTN PACKAGE
       5050 ELEMENTS OF THE IX ARRAY USED BY THE BTN PACKAGE

 FLOW MODEL IS TRANSIENT

 ADV5 -- ADVECTION PACKAGE, VERSION 5, FEBRUARY 2005, INPUT READ FROM UNIT 32
 ADVECTION IS SOLVED WITH THE ULTIMATE SCHEME
 COURANT NUMBER ALLOWED IN SOLVING THE ADVECTION TERM = 0.750    
          0 ELEMENTS OF THE  X ARRAY USED BY THE ADV PACKAGE
          0 ELEMENTS OF THE IX ARRAY USED BY THE ADV PACKAGE

 DSP5 -- DISPERSION PACKAGE, VERSION 5, OCTOBER 2006, INPUT READ FROM UNIT 33
      55100 ELEMENTS OF THE  X ARRAY USED BY THE DSP PACKAGE
          0 ELEMENTS OF THE IX ARRAY USED BY THE DSP PACKAGE

 SSM5 -- SINK & SOURCE MIXING PACKAGE, VERSION 5, OCTOBER 2006, INPUT READ FROM UNIT 34
 HEADER LINE OF THE SSM PACKAGE INPUT FILE:
  T F F F F F F F F F F F F F F F                                                                                                                                                                        
 MAJOR STRESS COMPONENTS PRESENT IN THE FLOW MODEL:
  o WELL
 MAXIMUM NUMBER OF POINT SINKS/SOURCES =     100
       1300 ELEMENTS OF THE  X ARRAY USED BY THE SSM PACKAGE
          0 ELEMENTS OF THE IX ARRAY BY THE SSM PACKAGE

 GCG5 -- GENERALIZED CONJUGATE GRADIENT SOLVER PACKAGE, VERSION 5, FEBRUARY 2005 INPUT READ FROM UNIT 35
 MAXIMUM OF    1 OUTER ITERATIONS
        AND 5000 INNER ITERATIONS ALLOWED FOR CLOSURE
 THE PRECONDITIONING TYPE SELECTED IS JACOBI.
 DISPERSION CROSS TERMS LUMPED INTO RIGHT-HAND-SIDE
      80000 ELEMENTS OF THE  X ARRAY USED BY THE GCG PACKAGE
      15000 ELEMENTS OF THE IX ARRAY USED BY THE GCG PACKAGE

 
 # BAS6 package for  SEAWAT, generated by Flopy.                                 
 THE FREE FORMAT OPTION HAS BEEN SELECTED
   50 LAYERS         1 ROWS       100 COLUMNS
    1 STRESS PERIOD(S) IN SIMULATION

 BAS6 -- BASIC PACKAGE, VERSION 6, 1/11/2000 INPUT READ FROM UNIT   13
        250 ELEMENTS IN IR ARRAY ARE USED BY BAS

 WEL6 -- WELL PACKAGE, VERSION 6, 1/11/2000 INPUT READ FROM UNIT   20
 # WEL package for  SEAWAT, generated by Flopy.
 No named parameters
 MAXIMUM OF     50 ACTIVE WELLS AT ONE TIME
        200 ELEMENTS IN RX ARRAY ARE USED BY WEL

        200  ELEMENTS OF RX ARRAY USED OUT OF        200
          0  ELEMENTS OF RZ ARRAY USED OUT OF          1
        250  ELEMENTS OF IR ARRAY USED OUT OF        250
1
 # BAS6 package for  SEAWAT, generated by Flopy.                                 
                                                                                 



                     BOUNDARY ARRAY FOR LAYER   1
 READING ON UNIT   13 WITH FORMAT:            (100I10) 



                     BOUNDARY ARRAY FOR LAYER   2
 READING ON UNIT   13 WITH FORMAT:            (100I10) 



                     BOUNDARY ARRAY FOR LAYER   3
 READING ON UNIT   13 WITH FORMAT:            (100I10) 



                     BOUNDARY ARRAY FOR LAYER   4
 READING ON UNIT   13 WITH FORMAT:            (100I10) 



                     BOUNDARY ARRAY FOR LAYER   5
 READING ON UNIT   13 WITH FORMAT:            (100I10) 



                     BOUNDARY ARRAY FOR LAYER   6
 READING ON UNIT   13 WITH FORMAT:            (100I10) 



                     BOUNDARY ARRAY FOR LAYER   7
 READING ON UNIT   13 WITH FORMAT:            (100I10) 



                     BOUNDARY ARRAY FOR LAYER   8
 READING ON UNIT   13 WITH FORMAT:            (100I10) 



                     BOUNDARY ARRAY FOR LAYER   9
 READING ON UNIT   13 WITH FORMAT:            (100I10) 



                     BOUNDARY ARRAY FOR LAYER  10
 READING ON UNIT   13 WITH FORMAT:            (100I10) 



                     BOUNDARY ARRAY FOR LAYER  11
 READING ON UNIT   13 WITH FORMAT:            (100I10) 



                     BOUNDARY ARRAY FOR LAYER  12
 READING ON UNIT   13 WITH FORMAT:            (100I10) 



                     BOUNDARY ARRAY FOR LAYER  13
 READING ON UNIT   13 WITH FORMAT:            (100I10) 



                     BOUNDARY ARRAY FOR LAYER  14
 READING ON UNIT   13 WITH FORMAT:            (100I10) 



                     BOUNDARY ARRAY FOR LAYER  15
 READING ON UNIT   13 WITH FORMAT:            (100I10) 



                     BOUNDARY ARRAY FOR LAYER  16
 READING ON UNIT   13 WITH FORMAT:            (100I10) 



                     BOUNDARY ARRAY FOR LAYER  17
 READING ON UNIT   13 WITH FORMAT:            (100I10) 



                     BOUNDARY ARRAY FOR LAYER  18
 READING ON UNIT   13 WITH FORMAT:            (100I10) 



                     BOUNDARY ARRAY FOR LAYER  19
 READING ON UNIT   13 WITH FORMAT:            (100I10) 



                     BOUNDARY ARRAY FOR LAYER  20
 READING ON UNIT   13 WITH FORMAT:            (100I10) 



                     BOUNDARY ARRAY FOR LAYER  21
 READING ON UNIT   13 WITH FORMAT:            (100I10) 



                     BOUNDARY ARRAY FOR LAYER  22
 READING ON UNIT   13 WITH FORMAT:            (100I10) 



                     BOUNDARY ARRAY FOR LAYER  23
 READING ON UNIT   13 WITH FORMAT:            (100I10) 



                     BOUNDARY ARRAY FOR LAYER  24
 READING ON UNIT   13 WITH FORMAT:            (100I10) 



                     BOUNDARY ARRAY FOR LAYER  25
 READING ON UNIT   13 WITH FORMAT:            (100I10) 



                     BOUNDARY ARRAY FOR LAYER  26
 READING ON UNIT   13 WITH FORMAT:            (100I10) 



                     BOUNDARY ARRAY FOR LAYER  27
 READING ON UNIT   13 WITH FORMAT:            (100I10) 



                     BOUNDARY ARRAY FOR LAYER  28
 READING ON UNIT   13 WITH FORMAT:            (100I10) 



                     BOUNDARY ARRAY FOR LAYER  29
 READING ON UNIT   13 WITH FORMAT:            (100I10) 



                     BOUNDARY ARRAY FOR LAYER  30
 READING ON UNIT   13 WITH FORMAT:            (100I10) 



                     BOUNDARY ARRAY FOR LAYER  31
 READING ON UNIT   13 WITH FORMAT:            (100I10) 



                     BOUNDARY ARRAY FOR LAYER  32
 READING ON UNIT   13 WITH FORMAT:            (100I10) 



                     BOUNDARY ARRAY FOR LAYER  33
 READING ON UNIT   13 WITH FORMAT:            (100I10) 



                     BOUNDARY ARRAY FOR LAYER  34
 READING ON UNIT   13 WITH FORMAT:            (100I10) 



                     BOUNDARY ARRAY FOR LAYER  35
 READING ON UNIT   13 WITH FORMAT:            (100I10) 



                     BOUNDARY ARRAY FOR LAYER  36
 READING ON UNIT   13 WITH FORMAT:            (100I10) 



                     BOUNDARY ARRAY FOR LAYER  37
 READING ON UNIT   13 WITH FORMAT:            (100I10) 



                     BOUNDARY ARRAY FOR LAYER  38
 READING ON UNIT   13 WITH FORMAT:            (100I10) 



                     BOUNDARY ARRAY FOR LAYER  39
 READING ON UNIT   13 WITH FORMAT:            (100I10) 



                     BOUNDARY ARRAY FOR LAYER  40
 READING ON UNIT   13 WITH FORMAT:            (100I10) 



                     BOUNDARY ARRAY FOR LAYER  41
 READING ON UNIT   13 WITH FORMAT:            (100I10) 



                     BOUNDARY ARRAY FOR LAYER  42
 READING ON UNIT   13 WITH FORMAT:            (100I10) 



                     BOUNDARY ARRAY FOR LAYER  43
 READING ON UNIT   13 WITH FORMAT:            (100I10) 



                     BOUNDARY ARRAY FOR LAYER  44
 READING ON UNIT   13 WITH FORMAT:            (100I10) 



                     BOUNDARY ARRAY FOR LAYER  45
 READING ON UNIT   13 WITH FORMAT:            (100I10) 



                     BOUNDARY ARRAY FOR LAYER  46
 READING ON UNIT   13 WITH FORMAT:            (100I10) 



                     BOUNDARY ARRAY FOR LAYER  47
 READING ON UNIT   13 WITH FORMAT:            (100I10) 



                     BOUNDARY ARRAY FOR LAYER  48
 READING ON UNIT   13 WITH FORMAT:            (100I10) 



                     BOUNDARY ARRAY FOR LAYER  49
 READING ON UNIT   13 WITH FORMAT:            (100I10) 



                     BOUNDARY ARRAY FOR LAYER  50
 READING ON UNIT   13 WITH FORMAT:            (100I10) 

 AQUIFER HEAD WILL BE SET TO -999.99     AT ALL NO-FLOW NODES (IBOUND=0).

             INITIAL HEAD =  1.000000     FOR LAYER   1

             INITIAL HEAD =  1.000000     FOR LAYER   2

             INITIAL HEAD =  1.000000     FOR LAYER   3

             INITIAL HEAD =  1.000000     FOR LAYER   4

             INITIAL HEAD =  1.000000     FOR LAYER   5

             INITIAL HEAD =  1.000000     FOR LAYER   6

             INITIAL HEAD =  1.000000     FOR LAYER   7

             INITIAL HEAD =  1.000000     FOR LAYER   8

             INITIAL HEAD =  1.000000     FOR LAYER   9

             INITIAL HEAD =  1.000000     FOR LAYER  10

             INITIAL HEAD =  1.000000     FOR LAYER  11

             INITIAL HEAD =  1.000000     FOR LAYER  12

             INITIAL HEAD =  1.000000     FOR LAYER  13

             INITIAL HEAD =  1.000000     FOR LAYER  14

             INITIAL HEAD =  1.000000     FOR LAYER  15

             INITIAL HEAD =  1.000000     FOR LAYER  16

             INITIAL HEAD =  1.000000     FOR LAYER  17

             INITIAL HEAD =  1.000000     FOR LAYER  18

             INITIAL HEAD =  1.000000     FOR LAYER  19

             INITIAL HEAD =  1.000000     FOR LAYER  20

             INITIAL HEAD =  1.000000     FOR LAYER  21

             INITIAL HEAD =  1.000000     FOR LAYER  22

             INITIAL HEAD =  1.000000     FOR LAYER  23

             INITIAL HEAD =  1.000000     FOR LAYER  24

             INITIAL HEAD =  1.000000     FOR LAYER  25

             INITIAL HEAD =  1.000000     FOR LAYER  26

             INITIAL HEAD =  1.000000     FOR LAYER  27

             INITIAL HEAD =  1.000000     FOR LAYER  28

             INITIAL HEAD =  1.000000     FOR LAYER  29

             INITIAL HEAD =  1.000000     FOR LAYER  30

             INITIAL HEAD =  1.000000     FOR LAYER  31

             INITIAL HEAD =  1.000000     FOR LAYER  32

             INITIAL HEAD =  1.000000     FOR LAYER  33

             INITIAL HEAD =  1.000000     FOR LAYER  34

             INITIAL HEAD =  1.000000     FOR LAYER  35

             INITIAL HEAD =  1.000000     FOR LAYER  36

             INITIAL HEAD =  1.000000     FOR LAYER  37

             INITIAL HEAD =  1.000000     FOR LAYER  38

             INITIAL HEAD =  1.000000     FOR LAYER  39

             INITIAL HEAD =  1.000000     FOR LAYER  40

             INITIAL HEAD =  1.000000     FOR LAYER  41

             INITIAL HEAD =  1.000000     FOR LAYER  42

             INITIAL HEAD =  1.000000     FOR LAYER  43

             INITIAL HEAD =  1.000000     FOR LAYER  44

             INITIAL HEAD =  1.000000     FOR LAYER  45

             INITIAL HEAD =  1.000000     FOR LAYER  46

             INITIAL HEAD =  1.000000     FOR LAYER  47

             INITIAL HEAD =  1.000000     FOR LAYER  48

             INITIAL HEAD =  1.000000     FOR LAYER  49

             INITIAL HEAD =  1.000000     FOR LAYER  50
 # OC package for  SEAWAT, generated by Flopy.

 OUTPUT CONTROL IS SPECIFIED ONLY AT TIME STEPS FOR WHICH OUTPUT IS DESIRED
 COMPACT CELL-BY-CELL BUDGET FILES WILL BE WRITTEN
 AUXILIARY DATA WILL BE SAVED IN CELL-BY-CELL BUDGET FILES
 HEAD PRINT FORMAT CODE IS   0    DRAWDOWN PRINT FORMAT CODE IS   0
 HEADS WILL BE SAVED ON UNIT   51    DRAWDOWNS WILL BE SAVED ON UNIT    0


     0 Well parameters
 LAYER NUMBER  AQUIFER TYPE
 ------------  ------------
       1            1
       2            1
       3            1
       4            1
       5            1
       6            1
       7            1
       8            1
       9            1
      10            1
      11            1
      12            1
      13            1
      14            1
      15            1
      16            1
      17            1
      18            1
      19            1
      20            1
      21            1
      22            1
      23            1
      24            1
      25            1
      26            1
      27            1
      28            1
      29            1
      30            1
      31            1
      32            1
      33            1
      34            1
      35            1
      36            1
      37            1
      38            1
      39            1
      40            1
      41            1
      42            1
      43            1
      44            1
      45            1
      46            1
      47            1
      48            1
      49            1
      50            1
                                       WIDTH ALONG ROWS (DELR)  =  10.000000    
                                       WIDTH ALONG COLS (DELC)  =  1.0000000    
                                       TOP ELEV. OF 1ST LAYER   =   500.0000    
                                       CELL THICKNESS (DZ)      =  10.000000     FOR LAYER  1
                                       CELL THICKNESS (DZ)      =  10.000000     FOR LAYER  2
                                       CELL THICKNESS (DZ)      =  10.000000     FOR LAYER  3
                                       CELL THICKNESS (DZ)      =  10.000000     FOR LAYER  4
                                       CELL THICKNESS (DZ)      =  10.000000     FOR LAYER  5
                                       CELL THICKNESS (DZ)      =  10.000000     FOR LAYER  6
                                       CELL THICKNESS (DZ)      =  10.000000     FOR LAYER  7
                                       CELL THICKNESS (DZ)      =  10.000000     FOR LAYER  8
                                       CELL THICKNESS (DZ)      =  10.000000     FOR LAYER  9
                                       CELL THICKNESS (DZ)      =  10.000000     FOR LAYER 10
                                       CELL THICKNESS (DZ)      =  10.000000     FOR LAYER 11
                                       CELL THICKNESS (DZ)      =  10.000000     FOR LAYER 12
                                       CELL THICKNESS (DZ)      =  10.000000     FOR LAYER 13
                                       CELL THICKNESS (DZ)      =  10.000000     FOR LAYER 14
                                       CELL THICKNESS (DZ)      =  10.000000     FOR LAYER 15
                                       CELL THICKNESS (DZ)      =  10.000000     FOR LAYER 16
                                       CELL THICKNESS (DZ)      =  10.000000     FOR LAYER 17
                                       CELL THICKNESS (DZ)      =  10.000000     FOR LAYER 18
                                       CELL THICKNESS (DZ)      =  10.000000     FOR LAYER 19
                                       CELL THICKNESS (DZ)      =  10.000000     FOR LAYER 20
                                       CELL THICKNESS (DZ)      =  10.000000     FOR LAYER 21
                                       CELL THICKNESS (DZ)      =  10.000000     FOR LAYER 22
                                       CELL THICKNESS (DZ)      =  10.000000     FOR LAYER 23
                                       CELL THICKNESS (DZ)      =  10.000000     FOR LAYER 24
                                       CELL THICKNESS (DZ)      =  10.000000     FOR LAYER 25
                                       CELL THICKNESS (DZ)      =  10.000000     FOR LAYER 26
                                       CELL THICKNESS (DZ)      =  10.000000     FOR LAYER 27
                                       CELL THICKNESS (DZ)      =  10.000000     FOR LAYER 28
                                       CELL THICKNESS (DZ)      =  10.000000     FOR LAYER 29
                                       CELL THICKNESS (DZ)      =  10.000000     FOR LAYER 30
                                       CELL THICKNESS (DZ)      =  10.000000     FOR LAYER 31
                                       CELL THICKNESS (DZ)      =  10.000000     FOR LAYER 32
                                       CELL THICKNESS (DZ)      =  10.000000     FOR LAYER 33
                                       CELL THICKNESS (DZ)      =  10.000000     FOR LAYER 34
                                       CELL THICKNESS (DZ)      =  10.000000     FOR LAYER 35
                                       CELL THICKNESS (DZ)      =  10.000000     FOR LAYER 36
                                       CELL THICKNESS (DZ)      =  10.000000     FOR LAYER 37
                                       CELL THICKNESS (DZ)      =  10.000000     FOR LAYER 38
                                       CELL THICKNESS (DZ)      =  10.000000     FOR LAYER 39
                                       CELL THICKNESS (DZ)      =  10.000000     FOR LAYER 40
                                       CELL THICKNESS (DZ)      =  10.000000     FOR LAYER 41
                                       CELL THICKNESS (DZ)      =  10.000000     FOR LAYER 42
                                       CELL THICKNESS (DZ)      =  10.000000     FOR LAYER 43
                                       CELL THICKNESS (DZ)      =  10.000000     FOR LAYER 44
                                       CELL THICKNESS (DZ)      =  10.000000     FOR LAYER 45
                                       CELL THICKNESS (DZ)      =  10.000000     FOR LAYER 46
                                       CELL THICKNESS (DZ)      =  10.000000     FOR LAYER 47
                                       CELL THICKNESS (DZ)      =  10.000000     FOR LAYER 48
                                       CELL THICKNESS (DZ)      =  10.000000     FOR LAYER 49
                                       CELL THICKNESS (DZ)      =  10.000000     FOR LAYER 50
                                       POROSITY                 =  0.3500000     FOR LAYER  1
                                       POROSITY                 =  0.3500000     FOR LAYER  2
                                       POROSITY                 =  0.3500000     FOR LAYER  3
                                       POROSITY                 =  0.3500000     FOR LAYER  4
                                       POROSITY                 =  0.3500000     FOR LAYER  5
                                       POROSITY                 =  0.3500000     FOR LAYER  6
                                       POROSITY                 =  0.3500000     FOR LAYER  7
                                       POROSITY                 =  0.3500000     FOR LAYER  8
                                       POROSITY                 =  0.3500000     FOR LAYER  9
                                       POROSITY                 =  0.3500000     FOR LAYER 10
                                       POROSITY                 =  0.3500000     FOR LAYER 11
                                       POROSITY                 =  0.3500000     FOR LAYER 12
                                       POROSITY                 =  0.3500000     FOR LAYER 13
                                       POROSITY                 =  0.3500000     FOR LAYER 14
                                       POROSITY                 =  0.3500000     FOR LAYER 15
                                       POROSITY                 =  0.3500000     FOR LAYER 16
                                       POROSITY                 =  0.3500000     FOR LAYER 17
                                       POROSITY                 =  0.3500000     FOR LAYER 18
                                       POROSITY                 =  0.3500000     FOR LAYER 19
                                       POROSITY                 =  0.3500000     FOR LAYER 20
                                       POROSITY                 =  0.3500000     FOR LAYER 21
                                       POROSITY                 =  0.3500000     FOR LAYER 22
                                       POROSITY                 =  0.3500000     FOR LAYER 23
                                       POROSITY                 =  0.3500000     FOR LAYER 24
                                       POROSITY                 =  0.3500000     FOR LAYER 25
                                       POROSITY                 =  0.3500000     FOR LAYER 26
                                       POROSITY                 =  0.3500000     FOR LAYER 27
                                       POROSITY                 =  0.3500000     FOR LAYER 28
                                       POROSITY                 =  0.3500000     FOR LAYER 29
                                       POROSITY                 =  0.3500000     FOR LAYER 30
                                       POROSITY                 =  0.3500000     FOR LAYER 31
                                       POROSITY                 =  0.3500000     FOR LAYER 32
                                       POROSITY                 =  0.3500000     FOR LAYER 33
                                       POROSITY                 =  0.3500000     FOR LAYER 34
                                       POROSITY                 =  0.3500000     FOR LAYER 35
                                       POROSITY                 =  0.3500000     FOR LAYER 36
                                       POROSITY                 =  0.3500000     FOR LAYER 37
                                       POROSITY                 =  0.3500000     FOR LAYER 38
                                       POROSITY                 =  0.3500000     FOR LAYER 39
                                       POROSITY                 =  0.3500000     FOR LAYER 40
                                       POROSITY                 =  0.3500000     FOR LAYER 41
                                       POROSITY                 =  0.3500000     FOR LAYER 42
                                       POROSITY                 =  0.3500000     FOR LAYER 43
                                       POROSITY                 =  0.3500000     FOR LAYER 44
                                       POROSITY                 =  0.3500000     FOR LAYER 45
                                       POROSITY                 =  0.3500000     FOR LAYER 46
                                       POROSITY                 =  0.3500000     FOR LAYER 47
                                       POROSITY                 =  0.3500000     FOR LAYER 48
                                       POROSITY                 =  0.3500000     FOR LAYER 49
                                       POROSITY                 =  0.3500000     FOR LAYER 50

                     CONCN. BOUNDARY ARRAY    FOR LAYER  1 READ ON UNIT 31 USING FORMAT: "           (100I10) "
                     ------------------------------------------------------------------------------------------

                     CONCN. BOUNDARY ARRAY    FOR LAYER  2 READ ON UNIT 31 USING FORMAT: "           (100I10) "
                     ------------------------------------------------------------------------------------------

                     CONCN. BOUNDARY ARRAY    FOR LAYER  3 READ ON UNIT 31 USING FORMAT: "           (100I10) "
                     ------------------------------------------------------------------------------------------

                     CONCN. BOUNDARY ARRAY    FOR LAYER  4 READ ON UNIT 31 USING FORMAT: "           (100I10) "
                     ------------------------------------------------------------------------------------------

                     CONCN. BOUNDARY ARRAY    FOR LAYER  5 READ ON UNIT 31 USING FORMAT: "           (100I10) "
                     ------------------------------------------------------------------------------------------

                     CONCN. BOUNDARY ARRAY    FOR LAYER  6 READ ON UNIT 31 USING FORMAT: "           (100I10) "
                     ------------------------------------------------------------------------------------------

                     CONCN. BOUNDARY ARRAY    FOR LAYER  7 READ ON UNIT 31 USING FORMAT: "           (100I10) "
                     ------------------------------------------------------------------------------------------

                     CONCN. BOUNDARY ARRAY    FOR LAYER  8 READ ON UNIT 31 USING FORMAT: "           (100I10) "
                     ------------------------------------------------------------------------------------------

                     CONCN. BOUNDARY ARRAY    FOR LAYER  9 READ ON UNIT 31 USING FORMAT: "           (100I10) "
                     ------------------------------------------------------------------------------------------

                     CONCN. BOUNDARY ARRAY    FOR LAYER 10 READ ON UNIT 31 USING FORMAT: "           (100I10) "
                     ------------------------------------------------------------------------------------------

                     CONCN. BOUNDARY ARRAY    FOR LAYER 11 READ ON UNIT 31 USING FORMAT: "           (100I10) "
                     ------------------------------------------------------------------------------------------

                     CONCN. BOUNDARY ARRAY    FOR LAYER 12 READ ON UNIT 31 USING FORMAT: "           (100I10) "
                     ------------------------------------------------------------------------------------------

                     CONCN. BOUNDARY ARRAY    FOR LAYER 13 READ ON UNIT 31 USING FORMAT: "           (100I10) "
                     ------------------------------------------------------------------------------------------

                     CONCN. BOUNDARY ARRAY    FOR LAYER 14 READ ON UNIT 31 USING FORMAT: "           (100I10) "
                     ------------------------------------------------------------------------------------------

                     CONCN. BOUNDARY ARRAY    FOR LAYER 15 READ ON UNIT 31 USING FORMAT: "           (100I10) "
                     ------------------------------------------------------------------------------------------

                     CONCN. BOUNDARY ARRAY    FOR LAYER 16 READ ON UNIT 31 USING FORMAT: "           (100I10) "
                     ------------------------------------------------------------------------------------------

                     CONCN. BOUNDARY ARRAY    FOR LAYER 17 READ ON UNIT 31 USING FORMAT: "           (100I10) "
                     ------------------------------------------------------------------------------------------

                     CONCN. BOUNDARY ARRAY    FOR LAYER 18 READ ON UNIT 31 USING FORMAT: "           (100I10) "
                     ------------------------------------------------------------------------------------------

                     CONCN. BOUNDARY ARRAY    FOR LAYER 19 READ ON UNIT 31 USING FORMAT: "           (100I10) "
                     ------------------------------------------------------------------------------------------

                     CONCN. BOUNDARY ARRAY    FOR LAYER 20 READ ON UNIT 31 USING FORMAT: "           (100I10) "
                     ------------------------------------------------------------------------------------------

                     CONCN. BOUNDARY ARRAY    FOR LAYER 21 READ ON UNIT 31 USING FORMAT: "           (100I10) "
                     ------------------------------------------------------------------------------------------

                     CONCN. BOUNDARY ARRAY    FOR LAYER 22 READ ON UNIT 31 USING FORMAT: "           (100I10) "
                     ------------------------------------------------------------------------------------------

                     CONCN. BOUNDARY ARRAY    FOR LAYER 23 READ ON UNIT 31 USING FORMAT: "           (100I10) "
                     ------------------------------------------------------------------------------------------

                     CONCN. BOUNDARY ARRAY    FOR LAYER 24 READ ON UNIT 31 USING FORMAT: "           (100I10) "
                     ------------------------------------------------------------------------------------------

                     CONCN. BOUNDARY ARRAY    FOR LAYER 25 READ ON UNIT 31 USING FORMAT: "           (100I10) "
                     ------------------------------------------------------------------------------------------

                     CONCN. BOUNDARY ARRAY    FOR LAYER 26 READ ON UNIT 31 USING FORMAT: "           (100I10) "
                     ------------------------------------------------------------------------------------------

                     CONCN. BOUNDARY ARRAY    FOR LAYER 27 READ ON UNIT 31 USING FORMAT: "           (100I10) "
                     ------------------------------------------------------------------------------------------

                     CONCN. BOUNDARY ARRAY    FOR LAYER 28 READ ON UNIT 31 USING FORMAT: "           (100I10) "
                     ------------------------------------------------------------------------------------------

                     CONCN. BOUNDARY ARRAY    FOR LAYER 29 READ ON UNIT 31 USING FORMAT: "           (100I10) "
                     ------------------------------------------------------------------------------------------

                     CONCN. BOUNDARY ARRAY    FOR LAYER 30 READ ON UNIT 31 USING FORMAT: "           (100I10) "
                     ------------------------------------------------------------------------------------------

                     CONCN. BOUNDARY ARRAY    FOR LAYER 31 READ ON UNIT 31 USING FORMAT: "           (100I10) "
                     ------------------------------------------------------------------------------------------

                     CONCN. BOUNDARY ARRAY    FOR LAYER 32 READ ON UNIT 31 USING FORMAT: "           (100I10) "
                     ------------------------------------------------------------------------------------------

                     CONCN. BOUNDARY ARRAY    FOR LAYER 33 READ ON UNIT 31 USING FORMAT: "           (100I10) "
                     ------------------------------------------------------------------------------------------

                     CONCN. BOUNDARY ARRAY    FOR LAYER 34 READ ON UNIT 31 USING FORMAT: "           (100I10) "
                     ------------------------------------------------------------------------------------------

                     CONCN. BOUNDARY ARRAY    FOR LAYER 35 READ ON UNIT 31 USING FORMAT: "           (100I10) "
                     ------------------------------------------------------------------------------------------

                     CONCN. BOUNDARY ARRAY    FOR LAYER 36 READ ON UNIT 31 USING FORMAT: "           (100I10) "
                     ------------------------------------------------------------------------------------------

                     CONCN. BOUNDARY ARRAY    FOR LAYER 37 READ ON UNIT 31 USING FORMAT: "           (100I10) "
                     ------------------------------------------------------------------------------------------

                     CONCN. BOUNDARY ARRAY    FOR LAYER 38 READ ON UNIT 31 USING FORMAT: "           (100I10) "
                     ------------------------------------------------------------------------------------------

                     CONCN. BOUNDARY ARRAY    FOR LAYER 39 READ ON UNIT 31 USING FORMAT: "           (100I10) "
                     ------------------------------------------------------------------------------------------

                     CONCN. BOUNDARY ARRAY    FOR LAYER 40 READ ON UNIT 31 USING FORMAT: "           (100I10) "
                     ------------------------------------------------------------------------------------------

                     CONCN. BOUNDARY ARRAY    FOR LAYER 41 READ ON UNIT 31 USING FORMAT: "           (100I10) "
                     ------------------------------------------------------------------------------------------

                     CONCN. BOUNDARY ARRAY    FOR LAYER 42 READ ON UNIT 31 USING FORMAT: "           (100I10) "
                     ------------------------------------------------------------------------------------------

                     CONCN. BOUNDARY ARRAY    FOR LAYER 43 READ ON UNIT 31 USING FORMAT: "           (100I10) "
                     ------------------------------------------------------------------------------------------

                     CONCN. BOUNDARY ARRAY    FOR LAYER 44 READ ON UNIT 31 USING FORMAT: "           (100I10) "
                     ------------------------------------------------------------------------------------------

                     CONCN. BOUNDARY ARRAY    FOR LAYER 45 READ ON UNIT 31 USING FORMAT: "           (100I10) "
                     ------------------------------------------------------------------------------------------

                     CONCN. BOUNDARY ARRAY    FOR LAYER 46 READ ON UNIT 31 USING FORMAT: "           (100I10) "
                     ------------------------------------------------------------------------------------------

                     CONCN. BOUNDARY ARRAY    FOR LAYER 47 READ ON UNIT 31 USING FORMAT: "           (100I10) "
                     ------------------------------------------------------------------------------------------

                     CONCN. BOUNDARY ARRAY    FOR LAYER 48 READ ON UNIT 31 USING FORMAT: "           (100I10) "
                     ------------------------------------------------------------------------------------------

                     CONCN. BOUNDARY ARRAY    FOR LAYER 49 READ ON UNIT 31 USING FORMAT: "           (100I10) "
                     ------------------------------------------------------------------------------------------

                     CONCN. BOUNDARY ARRAY    FOR LAYER 50 READ ON UNIT 31 USING FORMAT: "           (100I10) "
                     ------------------------------------------------------------------------------------------

                     INITIAL CONC.: COMP.  01 FOR LAYER  1 READ ON UNIT 31 USING FORMAT: "         (100E15.6) "
                     ------------------------------------------------------------------------------------------

                     INITIAL CONC.: COMP.  01 FOR LAYER  2 READ ON UNIT 31 USING FORMAT: "         (100E15.6) "
                     ------------------------------------------------------------------------------------------

                     INITIAL CONC.: COMP.  01 FOR LAYER  3 READ ON UNIT 31 USING FORMAT: "         (100E15.6) "
                     ------------------------------------------------------------------------------------------

                     INITIAL CONC.: COMP.  01 FOR LAYER  4 READ ON UNIT 31 USING FORMAT: "         (100E15.6) "
                     ------------------------------------------------------------------------------------------

                     INITIAL CONC.: COMP.  01 FOR LAYER  5 READ ON UNIT 31 USING FORMAT: "         (100E15.6) "
                     ------------------------------------------------------------------------------------------

                     INITIAL CONC.: COMP.  01 FOR LAYER  6 READ ON UNIT 31 USING FORMAT: "         (100E15.6) "
                     ------------------------------------------------------------------------------------------

                     INITIAL CONC.: COMP.  01 FOR LAYER  7 READ ON UNIT 31 USING FORMAT: "         (100E15.6) "
                     ------------------------------------------------------------------------------------------

                     INITIAL CONC.: COMP.  01 FOR LAYER  8 READ ON UNIT 31 USING FORMAT: "         (100E15.6) "
                     ------------------------------------------------------------------------------------------

                     INITIAL CONC.: COMP.  01 FOR LAYER  9 READ ON UNIT 31 USING FORMAT: "         (100E15.6) "
                     ------------------------------------------------------------------------------------------

                     INITIAL CONC.: COMP.  01 FOR LAYER 10 READ ON UNIT 31 USING FORMAT: "         (100E15.6) "
                     ------------------------------------------------------------------------------------------

                     INITIAL CONC.: COMP.  01 FOR LAYER 11 READ ON UNIT 31 USING FORMAT: "         (100E15.6) "
                     ------------------------------------------------------------------------------------------

                     INITIAL CONC.: COMP.  01 FOR LAYER 12 READ ON UNIT 31 USING FORMAT: "         (100E15.6) "
                     ------------------------------------------------------------------------------------------

                     INITIAL CONC.: COMP.  01 FOR LAYER 13 READ ON UNIT 31 USING FORMAT: "         (100E15.6) "
                     ------------------------------------------------------------------------------------------

                     INITIAL CONC.: COMP.  01 FOR LAYER 14 READ ON UNIT 31 USING FORMAT: "         (100E15.6) "
                     ------------------------------------------------------------------------------------------

                     INITIAL CONC.: COMP.  01 FOR LAYER 15 READ ON UNIT 31 USING FORMAT: "         (100E15.6) "
                     ------------------------------------------------------------------------------------------

                     INITIAL CONC.: COMP.  01 FOR LAYER 16 READ ON UNIT 31 USING FORMAT: "         (100E15.6) "
                     ------------------------------------------------------------------------------------------

                     INITIAL CONC.: COMP.  01 FOR LAYER 17 READ ON UNIT 31 USING FORMAT: "         (100E15.6) "
                     ------------------------------------------------------------------------------------------

                     INITIAL CONC.: COMP.  01 FOR LAYER 18 READ ON UNIT 31 USING FORMAT: "         (100E15.6) "
                     ------------------------------------------------------------------------------------------

                     INITIAL CONC.: COMP.  01 FOR LAYER 19 READ ON UNIT 31 USING FORMAT: "         (100E15.6) "
                     ------------------------------------------------------------------------------------------

                     INITIAL CONC.: COMP.  01 FOR LAYER 20 READ ON UNIT 31 USING FORMAT: "         (100E15.6) "
                     ------------------------------------------------------------------------------------------

                     INITIAL CONC.: COMP.  01 FOR LAYER 21 READ ON UNIT 31 USING FORMAT: "         (100E15.6) "
                     ------------------------------------------------------------------------------------------

                     INITIAL CONC.: COMP.  01 FOR LAYER 22 READ ON UNIT 31 USING FORMAT: "         (100E15.6) "
                     ------------------------------------------------------------------------------------------

                     INITIAL CONC.: COMP.  01 FOR LAYER 23 READ ON UNIT 31 USING FORMAT: "         (100E15.6) "
                     ------------------------------------------------------------------------------------------

                     INITIAL CONC.: COMP.  01 FOR LAYER 24 READ ON UNIT 31 USING FORMAT: "         (100E15.6) "
                     ------------------------------------------------------------------------------------------

                     INITIAL CONC.: COMP.  01 FOR LAYER 25 READ ON UNIT 31 USING FORMAT: "         (100E15.6) "
                     ------------------------------------------------------------------------------------------

                     INITIAL CONC.: COMP.  01 FOR LAYER 26 READ ON UNIT 31 USING FORMAT: "         (100E15.6) "
                     ------------------------------------------------------------------------------------------

                     INITIAL CONC.: COMP.  01 FOR LAYER 27 READ ON UNIT 31 USING FORMAT: "         (100E15.6) "
                     ------------------------------------------------------------------------------------------

                     INITIAL CONC.: COMP.  01 FOR LAYER 28 READ ON UNIT 31 USING FORMAT: "         (100E15.6) "
                     ------------------------------------------------------------------------------------------

                     INITIAL CONC.: COMP.  01 FOR LAYER 29 READ ON UNIT 31 USING FORMAT: "         (100E15.6) "
                     ------------------------------------------------------------------------------------------

                     INITIAL CONC.: COMP.  01 FOR LAYER 30 READ ON UNIT 31 USING FORMAT: "         (100E15.6) "
                     ------------------------------------------------------------------------------------------

                     INITIAL CONC.: COMP.  01 FOR LAYER 31 READ ON UNIT 31 USING FORMAT: "         (100E15.6) "
                     ------------------------------------------------------------------------------------------

                     INITIAL CONC.: COMP.  01 FOR LAYER 32 READ ON UNIT 31 USING FORMAT: "         (100E15.6) "
                     ------------------------------------------------------------------------------------------

                     INITIAL CONC.: COMP.  01 FOR LAYER 33 READ ON UNIT 31 USING FORMAT: "         (100E15.6) "
                     ------------------------------------------------------------------------------------------

                     INITIAL CONC.: COMP.  01 FOR LAYER 34 READ ON UNIT 31 USING FORMAT: "         (100E15.6) "
                     ------------------------------------------------------------------------------------------

                     INITIAL CONC.: COMP.  01 FOR LAYER 35 READ ON UNIT 31 USING FORMAT: "         (100E15.6) "
                     ------------------------------------------------------------------------------------------

                     INITIAL CONC.: COMP.  01 FOR LAYER 36 READ ON UNIT 31 USING FORMAT: "         (100E15.6) "
                     ------------------------------------------------------------------------------------------

                     INITIAL CONC.: COMP.  01 FOR LAYER 37 READ ON UNIT 31 USING FORMAT: "         (100E15.6) "
                     ------------------------------------------------------------------------------------------

                     INITIAL CONC.: COMP.  01 FOR LAYER 38 READ ON UNIT 31 USING FORMAT: "         (100E15.6) "
                     ------------------------------------------------------------------------------------------

                     INITIAL CONC.: COMP.  01 FOR LAYER 39 READ ON UNIT 31 USING FORMAT: "         (100E15.6) "
                     ------------------------------------------------------------------------------------------

                     INITIAL CONC.: COMP.  01 FOR LAYER 40 READ ON UNIT 31 USING FORMAT: "         (100E15.6) "
                     ------------------------------------------------------------------------------------------

                     INITIAL CONC.: COMP.  01 FOR LAYER 41 READ ON UNIT 31 USING FORMAT: "         (100E15.6) "
                     ------------------------------------------------------------------------------------------

                     INITIAL CONC.: COMP.  01 FOR LAYER 42 READ ON UNIT 31 USING FORMAT: "         (100E15.6) "
                     ------------------------------------------------------------------------------------------

                     INITIAL CONC.: COMP.  01 FOR LAYER 43 READ ON UNIT 31 USING FORMAT: "         (100E15.6) "
                     ------------------------------------------------------------------------------------------

                     INITIAL CONC.: COMP.  01 FOR LAYER 44 READ ON UNIT 31 USING FORMAT: "         (100E15.6) "
                     ------------------------------------------------------------------------------------------

                     INITIAL CONC.: COMP.  01 FOR LAYER 45 READ ON UNIT 31 USING FORMAT: "         (100E15.6) "
                     ------------------------------------------------------------------------------------------

                     INITIAL CONC.: COMP.  01 FOR LAYER 46 READ ON UNIT 31 USING FORMAT: "         (100E15.6) "
                     ------------------------------------------------------------------------------------------

                     INITIAL CONC.: COMP.  01 FOR LAYER 47 READ ON UNIT 31 USING FORMAT: "         (100E15.6) "
                     ------------------------------------------------------------------------------------------

                     INITIAL CONC.: COMP.  01 FOR LAYER 48 READ ON UNIT 31 USING FORMAT: "         (100E15.6) "
                     ------------------------------------------------------------------------------------------

                     INITIAL CONC.: COMP.  01 FOR LAYER 49 READ ON UNIT 31 USING FORMAT: "         (100E15.6) "
                     ------------------------------------------------------------------------------------------

                     INITIAL CONC.: COMP.  01 FOR LAYER 50 READ ON UNIT 31 USING FORMAT: "         (100E15.6) "
                     ------------------------------------------------------------------------------------------

 VALUE INDICATING INACTIVE CONCENTRATION CELLS =   0.1000000E+31
 MINIMUM SATURATED THICKNESS [THKMIN] ALLOWED =  0.0100 OF TOTAL CELL THICKNESS


 OUTPUT CONTROL OPTIONS
 ----------------------

 DO NOT PRINT CELL CONCENTRATION
 DO NOT PRINT PARTICLE NUMBER IN EACH CELL
 DO NOT PRINT RETARDATION FACTOR
 DO NOT PRINT DISPERSION COEFFICIENT
 SAVE DISSOLVED PHASE CONCENTRATIONS IN UNFORMATTED FILES [MT3Dnnn.UCN]
  FOR EACH SPECIES ON UNITS 201 AND ABOVE

 NUMBER OF TIMES AT WHICH SIMULATION RESULTS ARE SAVED =  365
 TOTAL ELAPSED TIMES AT WHICH SIMULATION RESULTS ARE SAVED: 
    365.00       384.05       403.10       422.16       441.21       460.26       479.31       498.37    
    517.42       536.47       555.52       574.57       593.63       612.68       631.73       650.78    
    669.84       688.89       707.94       726.99       746.04       765.10       784.15       803.20    
    822.25       841.30       860.36       879.41       898.46       917.51       936.57       955.62    
    974.67       993.72       1012.8       1031.8       1050.9       1069.9       1089.0       1108.0    
    1127.1       1146.1       1165.2       1184.2       1203.3       1222.3       1241.4       1260.5    
    1279.5       1298.6       1317.6       1336.7       1355.7       1374.8       1393.8       1412.9    
    1431.9       1451.0       1470.0       1489.1       1508.1       1527.2       1546.2       1565.3    
    1584.3       1603.4       1622.4       1641.5       1660.5       1679.6       1698.7       1717.7    
    1736.8       1755.8       1774.9       1793.9       1813.0       1832.0       1851.1       1870.1    
    1889.2       1908.2       1927.3       1946.3       1965.4       1984.4       2003.5       2022.5    
    2041.6       2060.6       2079.7       2098.8       2117.8       2136.9       2155.9       2175.0    
    2194.0       2213.1       2232.1       2251.2       2270.2       2289.3       2308.3       2327.4    
    2346.4       2365.5       2384.5       2403.6       2422.6       2441.7       2460.7       2479.8    
    2498.8       2517.9       2537.0       2556.0       2575.1       2594.1       2613.2       2632.2    
    2651.3       2670.3       2689.4       2708.4       2727.5       2746.5       2765.6       2784.6    
    2803.7       2822.7       2841.8       2860.8       2879.9       2898.9       2918.0       2937.0    
    2956.1       2975.2       2994.2       3013.3       3032.3       3051.4       3070.4       3089.5    
    3108.5       3127.6       3146.6       3165.7       3184.7       3203.8       3222.8       3241.9    
    3260.9       3280.0       3299.0       3318.1       3337.1       3356.2       3375.2       3394.3    
    3413.4       3432.4       3451.5       3470.5       3489.6       3508.6       3527.7       3546.7    
    3565.8       3584.8       3603.9       3622.9       3642.0       3661.0       3680.1       3699.1    
    3718.2       3737.2       3756.3       3775.3       3794.4       3813.4       3832.5       3851.6    
    3870.6       3889.7       3908.7       3927.8       3946.8       3965.9       3984.9       4004.0    
    4023.0       4042.1       4061.1       4080.2       4099.2       4118.3       4137.3       4156.4    
    4175.4       4194.5       4213.5       4232.6       4251.6       4270.7       4289.8       4308.8    
    4327.9       4346.9       4366.0       4385.0       4404.1       4423.1       4442.2       4461.2    
    4480.3       4499.3       4518.4       4537.4       4556.5       4575.5       4594.6       4613.6    
    4632.7       4651.7       4670.8       4689.8       4708.9       4728.0       4747.0       4766.1    
    4785.1       4804.2       4823.2       4842.3       4861.3       4880.4       4899.4       4918.5    
    4937.5       4956.6       4975.6       4994.7       5013.7       5032.8       5051.8       5070.9    
    5089.9       5109.0       5128.0       5147.1       5166.2       5185.2       5204.3       5223.3    
    5242.4       5261.4       5280.5       5299.5       5318.6       5337.6       5356.7       5375.7    
    5394.8       5413.8       5432.9       5451.9       5471.0       5490.0       5509.1       5528.1    
    5547.2       5566.2       5585.3       5604.4       5623.4       5642.5       5661.5       5680.6    
    5699.6       5718.7       5737.7       5756.8       5775.8       5794.9       5813.9       5833.0    
    5852.0       5871.1       5890.1       5909.2       5928.2       5947.3       5966.3       5985.4    
    6004.5       6023.5       6042.6       6061.6       6080.7       6099.7       6118.8       6137.8    
    6156.9       6175.9       6195.0       6214.0       6233.1       6252.1       6271.2       6290.2    
    6309.3       6328.3       6347.4       6366.4       6385.5       6404.5       6423.6       6442.7    
    6461.7       6480.8       6499.8       6518.9       6537.9       6557.0       6576.0       6595.1    
    6614.1       6633.2       6652.2       6671.3       6690.3       6709.4       6728.4       6747.5    
    6766.5       6785.6       6804.6       6823.7       6842.7       6861.8       6880.9       6899.9    
    6919.0       6938.0       6957.1       6976.1       6995.2       7014.2       7033.3       7052.3    
    7071.4       7090.4       7109.5       7128.5       7147.6       7166.6       7185.7       7204.7    
    7223.8       7242.8       7261.9       7280.9       7300.0    

 NUMBER OF OBSERVATION POINTS =    0

 SAVE ONE-LINE SUMMARY OF MASS BUDGETS IN FILES [MT3Dnnn.MAS]
  FOR EACH SPECIES ON UNITS 601 AND ABOVE, EVERY  1 TRANSPORT STEPS

 MAXIMUM LENGTH ALONG THE X (J) AXIS =  1000.0000    
 MAXIMUM LENGTH ALONG THE Y (I) AXIS =  1.0000000    
 MAXIMUM LENGTH ALONG THE Z (K) AXIS =   500.0000    


 ADVECTION SOLUTION OPTIONS
 --------------------------

 ADVECTION IS SOLVED WITH THE ULTIMATE SCHEME
 COURANT NUMBER ALLOWED IN SOLVING THE ADVECTION TERM = 0.750    


 DISPERSION INPUT PARAMETERS
 ---------------------------

                                       LONG. DISPERSIVITY (AL)  =  10.000000     FOR LAYER  1
                                       LONG. DISPERSIVITY (AL)  =  10.000000     FOR LAYER  2
                                       LONG. DISPERSIVITY (AL)  =  10.000000     FOR LAYER  3
                                       LONG. DISPERSIVITY (AL)  =  10.000000     FOR LAYER  4
                                       LONG. DISPERSIVITY (AL)  =  10.000000     FOR LAYER  5
                                       LONG. DISPERSIVITY (AL)  =  10.000000     FOR LAYER  6
                                       LONG. DISPERSIVITY (AL)  =  10.000000     FOR LAYER  7
                                       LONG. DISPERSIVITY (AL)  =  10.000000     FOR LAYER  8
                                       LONG. DISPERSIVITY (AL)  =  10.000000     FOR LAYER  9
                                       LONG. DISPERSIVITY (AL)  =  10.000000     FOR LAYER 10
                                       LONG. DISPERSIVITY (AL)  =  10.000000     FOR LAYER 11
                                       LONG. DISPERSIVITY (AL)  =  10.000000     FOR LAYER 12
                                       LONG. DISPERSIVITY (AL)  =  10.000000     FOR LAYER 13
                                       LONG. DISPERSIVITY (AL)  =  10.000000     FOR LAYER 14
                                       LONG. DISPERSIVITY (AL)  =  10.000000     FOR LAYER 15
                                       LONG. DISPERSIVITY (AL)  =  10.000000     FOR LAYER 16
                                       LONG. DISPERSIVITY (AL)  =  10.000000     FOR LAYER 17
                                       LONG. DISPERSIVITY (AL)  =  10.000000     FOR LAYER 18
                                       LONG. DISPERSIVITY (AL)  =  10.000000     FOR LAYER 19
                                       LONG. DISPERSIVITY (AL)  =  10.000000     FOR LAYER 20
                                       LONG. DISPERSIVITY (AL)  =  10.000000     FOR LAYER 21
                                       LONG. DISPERSIVITY (AL)  =  10.000000     FOR LAYER 22
                                       LONG. DISPERSIVITY (AL)  =  10.000000     FOR LAYER 23
                                       LONG. DISPERSIVITY (AL)  =  10.000000     FOR LAYER 24
                                       LONG. DISPERSIVITY (AL)  =  10.000000     FOR LAYER 25
                                       LONG. DISPERSIVITY (AL)  =  10.000000     FOR LAYER 26
                                       LONG. DISPERSIVITY (AL)  =  10.000000     FOR LAYER 27
                                       LONG. DISPERSIVITY (AL)  =  10.000000     FOR LAYER 28
                                       LONG. DISPERSIVITY (AL)  =  10.000000     FOR LAYER 29
                                       LONG. DISPERSIVITY (AL)  =  10.000000     FOR LAYER 30
                                       LONG. DISPERSIVITY (AL)  =  10.000000     FOR LAYER 31
                                       LONG. DISPERSIVITY (AL)  =  10.000000     FOR LAYER 32
                                       LONG. DISPERSIVITY (AL)  =  10.000000     FOR LAYER 33
                                       LONG. DISPERSIVITY (AL)  =  10.000000     FOR LAYER 34
                                       LONG. DISPERSIVITY (AL)  =  10.000000     FOR LAYER 35
                                       LONG. DISPERSIVITY (AL)  =  10.000000     FOR LAYER 36
                                       LONG. DISPERSIVITY (AL)  =  10.000000     FOR LAYER 37
                                       LONG. DISPERSIVITY (AL)  =  10.000000     FOR LAYER 38
                                       LONG. DISPERSIVITY (AL)  =  10.000000     FOR LAYER 39
                                       LONG. DISPERSIVITY (AL)  =  10.000000     FOR LAYER 40
                                       LONG. DISPERSIVITY (AL)  =  10.000000     FOR LAYER 41
                                       LONG. DISPERSIVITY (AL)  =  10.000000     FOR LAYER 42
                                       LONG. DISPERSIVITY (AL)  =  10.000000     FOR LAYER 43
                                       LONG. DISPERSIVITY (AL)  =  10.000000     FOR LAYER 44
                                       LONG. DISPERSIVITY (AL)  =  10.000000     FOR LAYER 45
                                       LONG. DISPERSIVITY (AL)  =  10.000000     FOR LAYER 46
                                       LONG. DISPERSIVITY (AL)  =  10.000000     FOR LAYER 47
                                       LONG. DISPERSIVITY (AL)  =  10.000000     FOR LAYER 48
                                       LONG. DISPERSIVITY (AL)  =  10.000000     FOR LAYER 49
                                       LONG. DISPERSIVITY (AL)  =  10.000000     FOR LAYER 50
                                       H. TRANS./LONG. DISP.    =  0.1000000E+00
                                       V. TRANS./LONG. DISP.    =  0.1000000E+00
                                       DIFFUSION COEFFICIENT    =   5.000000    



                                               SOLUTION BY THE GENERALIZED CONJUGATE GRADIENT METHOD
                                               -----------------------------------------------------
                                     MAXIMUM OUTER ITERATIONS ALLOWED FOR CLOSURE =        1
                                     MAXIMUM INNER ITERATIONS ALLOWED FOR CLOSURE =     5000
                                                    PRECONDITIONING TYPE SELECTED =    1
                                                           ACCELERATION PARAMETER =    1.00000    
                                       CONCENTRATION CHANGE CRITERION FOR CLOSURE =    0.10000E-06
                                       GCG CONCENTRATION CHANGE PRINTOUT INTERVAL =      999


                                   ++++++++++++++++++++++++++++++++++++++++++++++++++++++++++++++
                                                       STRESS PERIOD NO.  001
                                   ++++++++++++++++++++++++++++++++++++++++++++++++++++++++++++++


 LENGTH OF CURRENT STRESS PERIOD =   7300.000    
 NUMBER OF TIME STEPS FOR CURRENT STRESS PERIOD =  730
 TIME STEP MULTIPLIER USED IN FLOW SOLUTION =  1.0000000    
 USER-SPECIFIED TRANSPORT STEPSIZE =   0.000000    D   
 MAXIMUM NUMBER OF TRANSPORT STEPS ALLOWED  IN ONE FLOW TIME STEP =     50000
 MULTIPLIER FOR SUCCESSIVE TRANSPORT STEPS  [USED IN IMPLICIT SCHEMES] =     1.000
 MAXIMUM TRANSPORT STEP SIZE  [USED IN IMPLICIT SCHEMES] =   0.000000    D   
1
                            STRESS PERIOD NO.    1, LENGTH =   7300.000    
                            -----------------------------------------------

                              NUMBER OF TIME STEPS =   730

                               MULTIPLIER FOR DELT =     1.000

                            INITIAL TIME STEP SIZE =  10.000000    

       NO    LAYER   ROW   COLUMN   CONCENTRATION       TYPE            COMPONENT

 WELL NO.  LAYER   ROW   COL   STRESS RATE         
 --------------------------------------------------
      1      1      1      1      1.0000    
      2      2      1      1      1.0000    
      3      3      1      1      1.0000    
      4      4      1      1      1.0000    
      5      5      1      1      1.0000    
      6      6      1      1      1.0000    
      7      7      1      1      1.0000    
      8      8      1      1      1.0000    
      9      9      1      1      1.0000    
     10     10      1      1      1.0000    
     11     11      1      1      1.0000    
     12     12      1      1      1.0000    
     13     13      1      1      1.0000    
     14     14      1      1      1.0000    
     15     15      1      1      1.0000    
     16     16      1      1      1.0000    
     17     17      1      1      1.0000    
     18     18      1      1      1.0000    
     19     19      1      1      1.0000    
     20     20      1      1      1.0000    
     21     21      1      1      1.0000    
     22     22      1      1      1.0000    
     23     23      1      1      1.0000    
     24     24      1      1      1.0000    
     25     25      1      1      1.0000    
     26     26      1      1      1.0000    
     27     27      1      1      1.0000    
     28     28      1      1      1.0000    
     29     29      1      1      1.0000    
     30     30      1      1      1.0000    
     31     31      1      1      1.0000    
     32     32      1      1      1.0000    
     33     33      1      1      1.0000    
     34     34      1      1      1.0000    
     35     35      1      1      1.0000    
     36     36      1      1      1.0000    
     37     37      1      1      1.0000    
     38     38      1      1      1.0000    
     39     39      1      1      1.0000    
     40     40      1      1      1.0000    
     41     41      1      1      1.0000    
     42     42      1      1      1.0000    
     43     43      1      1      1.0000    
     44     44      1      1      1.0000    
     45     45      1      1      1.0000    
     46     46      1      1      1.0000    
     47     47      1      1      1.0000    
     48     48      1      1      1.0000    
     49     49      1      1      1.0000    
     50     50      1      1      1.0000    

     50 WELLS


                                          ================================================
                                                         FROM TIME =   0.0000     TO   10.0000    

 
 SOLVING FOR HEAD 

 CELL CONVERSIONS FOR ITER.=  1  LAYER=  1  STEP=  1  PERIOD=   1   (ROW,COL)
    DRY(  1,  1)   DRY(  1,  2)   DRY(  1,  3)   DRY(  1,  4)   DRY(  1,  5)   
    DRY(  1,  6)   DRY(  1,  7)   DRY(  1,  8)   DRY(  1,  9)   DRY(  1, 10)   
    DRY(  1, 11)   DRY(  1, 12)   DRY(  1, 13)   DRY(  1, 14)   DRY(  1, 15)   
    DRY(  1, 16)   DRY(  1, 17)   DRY(  1, 18)   DRY(  1, 19)   DRY(  1, 20)   
    DRY(  1, 21)   DRY(  1, 22)   DRY(  1, 23)   DRY(  1, 24)   DRY(  1, 25)   
    DRY(  1, 26)   DRY(  1, 27)   DRY(  1, 28)   DRY(  1, 29)   DRY(  1, 30)   
    DRY(  1, 31)   DRY(  1, 32)   DRY(  1, 33)   DRY(  1, 34)   DRY(  1, 35)   
    DRY(  1, 36)   DRY(  1, 37)   DRY(  1, 38)   DRY(  1, 39)   DRY(  1, 40)   
    DRY(  1, 41)   DRY(  1, 42)   DRY(  1, 43)   DRY(  1, 44)   DRY(  1, 45)   
    DRY(  1, 46)   DRY(  1, 47)   DRY(  1, 48)   DRY(  1, 49)   DRY(  1, 50)   
    DRY(  1, 51)   DRY(  1, 52)   DRY(  1, 53)   DRY(  1, 54)   DRY(  1, 55)   
    DRY(  1, 56)   DRY(  1, 57)   DRY(  1, 58)   DRY(  1, 59)   DRY(  1, 60)   
    DRY(  1, 61)   DRY(  1, 62)   DRY(  1, 63)   DRY(  1, 64)   DRY(  1, 65)   
    DRY(  1, 66)   DRY(  1, 67)   DRY(  1, 68)   DRY(  1, 69)   DRY(  1, 70)   
    DRY(  1, 71)   DRY(  1, 72)   DRY(  1, 73)   DRY(  1, 74)   DRY(  1, 75)   
    DRY(  1, 76)   DRY(  1, 77)   DRY(  1, 78)   DRY(  1, 79)   DRY(  1, 80)   
    DRY(  1, 81)   DRY(  1, 82)   DRY(  1, 83)   DRY(  1, 84)   DRY(  1, 85)   
    DRY(  1, 86)   DRY(  1, 87)   DRY(  1, 88)   DRY(  1, 89)   DRY(  1, 90)   
    DRY(  1, 91)   DRY(  1, 92)   DRY(  1, 93)   DRY(  1, 94)   DRY(  1, 95)   
    DRY(  1, 96)   DRY(  1, 97)   DRY(  1, 98)   DRY(  1, 99)   DRY(  1,100)   

 CONSTANT-HEAD CELL WENT DRY -- SIMULATION ABORTED
   1.00000000000000        490.000000000000       -489.000000000000     
 LAYER=  1 ROW=    1 COLUMN=  100 ITERATION=  1 TIME STEP=  1 STRESS PERIOD=   1
