                                  SEAWAT Version 4
      U.S. GEOLOGICAL SURVEY MODULAR FINITE-DIFFERENCE GROUND-WATER FLOW MODEL
                           VERSION 4.00.05 10/19/2012


 This model run combines GLOBAL and LIST output into this single file.

 GLOBAL LISTING FILE: lens.list
                         UNIT    2

 OPENING lens.dis
 FILE TYPE:DIS   UNIT   11   STATUS:OLD    
 FORMAT:FORMATTED              ACCESS:SEQUENTIAL          

 OPENING lens.bas
 FILE TYPE:BAS6   UNIT   13   STATUS:OLD    
 FORMAT:FORMATTED              ACCESS:SEQUENTIAL          

 OPENING lens.lpf
 FILE TYPE:LPF   UNIT   15   STATUS:OLD    
 FORMAT:FORMATTED              ACCESS:SEQUENTIAL          

 OPENING lens.pcg
 FILE TYPE:PCG   UNIT   27   STATUS:OLD    
 FORMAT:FORMATTED              ACCESS:SEQUENTIAL          

 OPENING lens.oc
 FILE TYPE:OC   UNIT   14   STATUS:OLD    
 FORMAT:FORMATTED              ACCESS:SEQUENTIAL          

 OPENING lens.rch
 FILE TYPE:RCH   UNIT   19   STATUS:OLD    
 FORMAT:FORMATTED              ACCESS:SEQUENTIAL          

 OPENING lens.btn
 FILE TYPE:BTN   UNIT   31   STATUS:OLD    
 FORMAT:FORMATTED              ACCESS:SEQUENTIAL          

 OPENING lens.adv
 FILE TYPE:ADV   UNIT   32   STATUS:OLD    
 FORMAT:FORMATTED              ACCESS:SEQUENTIAL          

 OPENING lens.dsp
 FILE TYPE:DSP   UNIT   33   STATUS:OLD    
 FORMAT:FORMATTED              ACCESS:SEQUENTIAL          

 OPENING lens.gcg
 FILE TYPE:GCG   UNIT   35   STATUS:OLD    
 FORMAT:FORMATTED              ACCESS:SEQUENTIAL          

 OPENING lens.ssm
 FILE TYPE:SSM   UNIT   34   STATUS:OLD    
 FORMAT:FORMATTED              ACCESS:SEQUENTIAL          

 OPENING lens.vdf
 FILE TYPE:VDF   UNIT   37   STATUS:OLD    
 FORMAT:FORMATTED              ACCESS:SEQUENTIAL          

 OPENING lens.wel
 FILE TYPE:WEL   UNIT   20   STATUS:OLD    
 FORMAT:FORMATTED              ACCESS:SEQUENTIAL          

 OPENING rech_0.ref
 FILE TYPE:DATA   UNIT 3006   STATUS:UNKNOWN
 FORMAT:FORMATTED              ACCESS:SEQUENTIAL          

 OPENING lens.cbc
 FILE TYPE:DATA(BINARY)   UNIT   53   STATUS:REPLACE
 FORMAT:BINARY                 ACCESS:SEQUENTIAL          

 OPENING lens.hds
 FILE TYPE:DATA(BINARY)   UNIT   51   STATUS:REPLACE
 FORMAT:BINARY                 ACCESS:SEQUENTIAL          

 THE FREE FORMAT OPTION HAS BEEN SELECTED

 DISCRETIZATION INPUT DATA READ FROM UNIT   11
 # DIS package for  SEAWAT, generated by Flopy.
   15 LAYERS         1 ROWS       100 COLUMNS
   21 STRESS PERIOD(S) IN SIMULATION
 MODEL TIME UNIT IS DAYS
 MODEL LENGTH UNIT IS METERS
  ----- 
 | M T | ## BTN for MT3DMS, generated by Flopy.                                          
 | 3 D | ##                                                                              
  ----- 
 THE TRANSPORT MODEL CONSISTS OF    15 LAYER(S)    1 ROW(S)  100 COLUMN(S)
 NUMBER OF STRESS PERIOD(S) FOR TRANSPORT SIMULATION =   21
 NUMBER OF ALL COMPONENTS INCLUDED IN SIMULATION =    1
 NUMBER OF MOBILE COMPONENTS INCLUDED IN SIMULATION =    1
 UNIT FOR TIME IS D   ;  UNIT FOR LENGTH IS M   ;  UNIT FOR MASS IS KG  
 OPTIONAL PACKAGES INCLUDED IN CURRENT SIMULATION:
  o ADV   ON UNIT 32
  o DSP   ON UNIT 33
  o SSM   ON UNIT 34
  o GCG   ON UNIT 35


 VDF -- VARIABLE DENSITY FLOW, VERSION 1, 2/13/2004
         INPUT READ FROM UNIT 37

 COUPLING BETWEEN FLOW AND TRANSPORT IS EXPLICIT
 VARIABLE-DENSITY WATER-TABLE CORRECTIONS NOT ADDED
 MT3DMS SPECIES USED IN EQUATION OF STATE FOR FLUID DENSITY:         -1
 AN UPSTREAM-WEIGHTED ALGORITHM IS USED TO CALCULATE FLUID DENSITY TERMS THAT CONSERVE MASS
 DENSITY EQUATION OF STATE
 RHO =    1000.000    
  + 0.1300E-02 * ( CONC(   1) -  0.000     )



 FIRSTDT SPECIFIED BY USER IN THE VDF FILE IS:   0.1000000E-02
 THE GROUND-WATER TRANSPORT PROCESS IS INACTIVE

 THE OBSERVATION PROCESS IS INACTIVE
 THE SENSITIVITY PROCESS IS INACTIVE
 THE PARAMETER-ESTIMATION PROCESS IS INACTIVE

 MODE: FORWARD

  Confining bed flag for each layer:
   0   0   0   0   0   0   0   0   0   0   0   0   0   0   0

      13601  ELEMENTS OF GX ARRAY USED OUT OF      13601
       1500  ELEMENTS OF GZ ARRAY USED OUT OF       1500
       1500  ELEMENTS OF IG ARRAY USED OUT OF       1500

                     DELR =  100.0000    

                     DELC =  1.000000    

 TOP ELEVATION OF LAYER 1 =   0.00000    

   MODEL LAYER BOTTOM EL. = -10.00000     FOR LAYER   1

   MODEL LAYER BOTTOM EL. =  -20.0000     FOR LAYER   2

   MODEL LAYER BOTTOM EL. =  -30.0000     FOR LAYER   3

   MODEL LAYER BOTTOM EL. =  -40.0000     FOR LAYER   4

   MODEL LAYER BOTTOM EL. =  -50.0000     FOR LAYER   5

   MODEL LAYER BOTTOM EL. =  -60.0000     FOR LAYER   6

   MODEL LAYER BOTTOM EL. =  -70.0000     FOR LAYER   7

   MODEL LAYER BOTTOM EL. =  -80.0000     FOR LAYER   8

   MODEL LAYER BOTTOM EL. =  -90.0000     FOR LAYER   9

   MODEL LAYER BOTTOM EL. = -100.0000     FOR LAYER  10

   MODEL LAYER BOTTOM EL. =  -110.000     FOR LAYER  11

   MODEL LAYER BOTTOM EL. =  -120.000     FOR LAYER  12

   MODEL LAYER BOTTOM EL. =  -130.000     FOR LAYER  13

   MODEL LAYER BOTTOM EL. =  -140.000     FOR LAYER  14

   MODEL LAYER BOTTOM EL. =  -150.000     FOR LAYER  15


 STRESS PERIOD     LENGTH       TIME STEPS     MULTIPLIER FOR DELT    SS FLAG
 ----------------------------------------------------------------------------
        1         0.000000          1                    1.000         SS
        2         9131.250         25                    1.000         SS
        3         9131.250         25                    1.000         SS
        4         9131.250         25                    1.000         SS
        5         9131.250         25                    1.000         SS
        6         9131.250         25                    1.000         SS
        7         9131.250         25                    1.000         SS
        8         9131.250         25                    1.000         SS
        9         9131.250         25                    1.000         SS
       10         9131.250         25                    1.000         SS
       11         9131.250         25                    1.000         SS
       12         9131.250         25                    1.000         SS
       13         9131.250         25                    1.000         SS
       14         9131.250         25                    1.000         SS
       15         9131.250         25                    1.000         SS
       16         9131.250         25                    1.000         SS
       17         9131.250         25                    1.000         SS
       18         9131.250         25                    1.000         SS
       19         9131.250         25                    1.000         SS
       20         9131.250         25                    1.000         SS
       21         9131.250         25                    1.000         SS

 STEADY-STATE SIMULATION




 LPF1 -- LAYER PROPERTY FLOW PACKAGE, VERSION 1, 1/11/2000
         INPUT READ FROM UNIT   15
 # LPF package for  SEAWAT, generated by Flopy.
 CELL-BY-CELL FLOWS WILL BE SAVED ON UNIT   53
 HEAD AT CELLS THAT CONVERT TO DRY= -1.00000E+30
 No named parameters

   LAYER FLAGS:
 LAYER       LAYTYP        LAYAVG         CHANI        LAYVKA        LAYWET
 ---------------------------------------------------------------------------
    1             0             0     1.000E+00             0             0
    2             0             0     1.000E+00             0             0
    3             0             0     1.000E+00             0             0
    4             0             0     1.000E+00             0             0
    5             0             0     1.000E+00             0             0
    6             0             0     1.000E+00             0             0
    7             0             0     1.000E+00             0             0
    8             0             0     1.000E+00             0             0
    9             0             0     1.000E+00             0             0
   10             0             0     1.000E+00             0             0
   11             0             0     1.000E+00             0             0
   12             0             0     1.000E+00             0             0
   13             0             0     1.000E+00             0             0
   14             0             0     1.000E+00             0             0
   15             0             0     1.000E+00             0             0

   INTERPRETATION OF LAYER FLAGS:
                        INTERBLOCK     HORIZONTAL    DATA IN
         LAYER TYPE   TRANSMISSIVITY   ANISOTROPY   ARRAY VKA   WETTABILITY
 LAYER      (LAYTYP)      (LAYAVG)       (CHANI)      (LAYVKA)      (LAYWET)
 ---------------------------------------------------------------------------
    1      CONFINED      HARMONIC     1.000E+00    VERTICAL K  NON-WETTABLE
    2      CONFINED      HARMONIC     1.000E+00    VERTICAL K  NON-WETTABLE
    3      CONFINED      HARMONIC     1.000E+00    VERTICAL K  NON-WETTABLE
    4      CONFINED      HARMONIC     1.000E+00    VERTICAL K  NON-WETTABLE
    5      CONFINED      HARMONIC     1.000E+00    VERTICAL K  NON-WETTABLE
    6      CONFINED      HARMONIC     1.000E+00    VERTICAL K  NON-WETTABLE
    7      CONFINED      HARMONIC     1.000E+00    VERTICAL K  NON-WETTABLE
    8      CONFINED      HARMONIC     1.000E+00    VERTICAL K  NON-WETTABLE
    9      CONFINED      HARMONIC     1.000E+00    VERTICAL K  NON-WETTABLE
   10      CONFINED      HARMONIC     1.000E+00    VERTICAL K  NON-WETTABLE
   11      CONFINED      HARMONIC     1.000E+00    VERTICAL K  NON-WETTABLE
   12      CONFINED      HARMONIC     1.000E+00    VERTICAL K  NON-WETTABLE
   13      CONFINED      HARMONIC     1.000E+00    VERTICAL K  NON-WETTABLE
   14      CONFINED      HARMONIC     1.000E+00    VERTICAL K  NON-WETTABLE
   15      CONFINED      HARMONIC     1.000E+00    VERTICAL K  NON-WETTABLE

       3000 ELEMENTS IN X ARRAY ARE USED BY LPF
         90 ELEMENTS IN IX ARRAY ARE USED BY LPF

 PCG2 -- CONJUGATE GRADIENT SOLUTION PACKAGE, VERSION 2.4, 12/29/98
 # PCG package for  SEAWAT, generated by Flopy.
 MAXIMUM OF     50 CALLS OF SOLUTION ROUTINE
 MAXIMUM OF     30 INTERNAL ITERATIONS PER CALL TO SOLUTION ROUTINE
 MATRIX PRECONDITIONING TYPE :    1
       6000 ELEMENTS IN X ARRAY ARE USED BY PCG
      10500 ELEMENTS IN IX ARRAY ARE USED BY PCG
       6000 ELEMENTS IN Z ARRAY ARE USED BY PCG

       9000  ELEMENTS OF X ARRAY USED OUT OF       9000
       6000  ELEMENTS OF Z ARRAY USED OUT OF       6000
      10590  ELEMENTS OF IX ARRAY USED OUT OF      10590
          0  ELEMENTS OF XHS ARRAY USED OUT OF          1



                                    SOLUTION BY THE CONJUGATE-GRADIENT METHOD
                                   -------------------------------------------
                    MAXIMUM NUMBER OF CALLS TO PCG ROUTINE =       50
                        MAXIMUM ITERATIONS PER CALL TO PCG =       30
                               MATRIX PRECONDITIONING TYPE =        1
        RELAXATION FACTOR (ONLY USED WITH PRECOND. TYPE 1) =    0.10000E+01
 PARAMETER OF POLYNOMIAL PRECOND. = 2 (2) OR IS CALCULATED :        0
                         HEAD CHANGE CRITERION FOR CLOSURE =    0.10000E-04
                     RESIDUAL CHANGE CRITERION FOR CLOSURE =    0.10000E-04
            PCG HEAD AND RESIDUAL CHANGE PRINTOUT INTERVAL =      999
     PRINTING FROM SOLVER IS LIMITED(1) OR SUPPRESSED (>1) =        3
                                         DAMPING PARAMETER =    0.10000E+01

 WETTING CAPABILITY IS NOT ACTIVE IN ANY LAYER

    HYD. COND. ALONG ROWS =   25.0000     FOR LAYER   1

      VERTICAL HYD. COND. =   2.50000     FOR LAYER   1

    HYD. COND. ALONG ROWS =   25.0000     FOR LAYER   2

      VERTICAL HYD. COND. =   2.50000     FOR LAYER   2

    HYD. COND. ALONG ROWS =   25.0000     FOR LAYER   3

      VERTICAL HYD. COND. =   2.50000     FOR LAYER   3

    HYD. COND. ALONG ROWS =   25.0000     FOR LAYER   4

      VERTICAL HYD. COND. =   2.50000     FOR LAYER   4

    HYD. COND. ALONG ROWS =   25.0000     FOR LAYER   5

      VERTICAL HYD. COND. =   2.50000     FOR LAYER   5

    HYD. COND. ALONG ROWS =   25.0000     FOR LAYER   6

      VERTICAL HYD. COND. =   2.50000     FOR LAYER   6

    HYD. COND. ALONG ROWS =   25.0000     FOR LAYER   7

      VERTICAL HYD. COND. =   2.50000     FOR LAYER   7

    HYD. COND. ALONG ROWS =   25.0000     FOR LAYER   8

      VERTICAL HYD. COND. =   2.50000     FOR LAYER   8

    HYD. COND. ALONG ROWS =   25.0000     FOR LAYER   9

      VERTICAL HYD. COND. =   2.50000     FOR LAYER   9

    HYD. COND. ALONG ROWS =   25.0000     FOR LAYER  10

      VERTICAL HYD. COND. =   2.50000     FOR LAYER  10

    HYD. COND. ALONG ROWS =   25.0000     FOR LAYER  11

      VERTICAL HYD. COND. =   2.50000     FOR LAYER  11

    HYD. COND. ALONG ROWS =   25.0000     FOR LAYER  12

      VERTICAL HYD. COND. =   2.50000     FOR LAYER  12

    HYD. COND. ALONG ROWS =   25.0000     FOR LAYER  13

      VERTICAL HYD. COND. =   2.50000     FOR LAYER  13

    HYD. COND. ALONG ROWS =   25.0000     FOR LAYER  14

      VERTICAL HYD. COND. =   2.50000     FOR LAYER  14

    HYD. COND. ALONG ROWS =   25.0000     FOR LAYER  15

      VERTICAL HYD. COND. =   2.50000     FOR LAYER  15
 BTN5 -- BASIC TRANSPORT PACKAGE, VERSION 5, OCTOBER 2006, INPUT READ FROM UNIT 31
      22802 ELEMENTS OF THE  X ARRAY USED BY THE BTN PACKAGE
       1515 ELEMENTS OF THE IX ARRAY USED BY THE BTN PACKAGE

 FLOW MODEL IS STEADY-STATE

 ADV5 -- ADVECTION PACKAGE, VERSION 5, FEBRUARY 2005, INPUT READ FROM UNIT 32
 ADVECTION IS SOLVED WITH THE UPSTREAM FINITE DIFFERENCE SCHEME
 COURANT NUMBER ALLOWED IN SOLVING THE ADVECTION TERM = 0.750    
          0 ELEMENTS OF THE  X ARRAY USED BY THE ADV PACKAGE
          0 ELEMENTS OF THE IX ARRAY USED BY THE ADV PACKAGE

 DSP5 -- DISPERSION PACKAGE, VERSION 5, OCTOBER 2006, INPUT READ FROM UNIT 33
      16530 ELEMENTS OF THE  X ARRAY USED BY THE DSP PACKAGE
          0 ELEMENTS OF THE IX ARRAY USED BY THE DSP PACKAGE

 SSM5 -- SINK & SOURCE MIXING PACKAGE, VERSION 5, OCTOBER 2006, INPUT READ FROM UNIT 34
 HEADER LINE OF THE SSM PACKAGE INPUT FILE:
  F F T F F F F F F F F F F F F F                                                                                                                                                                        
 MAJOR STRESS COMPONENTS PRESENT IN THE FLOW MODEL:
  o WELL
  o RECHARGE
 MAXIMUM NUMBER OF POINT SINKS/SOURCES =     160
       2280 ELEMENTS OF THE  X ARRAY USED BY THE SSM PACKAGE
        100 ELEMENTS OF THE IX ARRAY BY THE SSM PACKAGE

 GCG5 -- GENERALIZED CONJUGATE GRADIENT SOLVER PACKAGE, VERSION 5, FEBRUARY 2005 INPUT READ FROM UNIT 35
 MAXIMUM OF    1 OUTER ITERATIONS
        AND  500 INNER ITERATIONS ALLOWED FOR CLOSURE
 THE PRECONDITIONING TYPE SELECTED IS JACOBI.
 DISPERSION CROSS TERMS LUMPED INTO RIGHT-HAND-SIDE
      23000 ELEMENTS OF THE  X ARRAY USED BY THE GCG PACKAGE
       1500 ELEMENTS OF THE IX ARRAY USED BY THE GCG PACKAGE

 
 # BAS6 package for  SEAWAT, generated by Flopy.                                 
 THE FREE FORMAT OPTION HAS BEEN SELECTED
   15 LAYERS         1 ROWS       100 COLUMNS
   21 STRESS PERIOD(S) IN SIMULATION

 BAS6 -- BASIC PACKAGE, VERSION 6, 1/11/2000 INPUT READ FROM UNIT   13
         75 ELEMENTS IN IR ARRAY ARE USED BY BAS

 WEL6 -- WELL PACKAGE, VERSION 6, 1/11/2000 INPUT READ FROM UNIT   20
 # WEL package for  SEAWAT, generated by Flopy.
 No named parameters
 MAXIMUM OF      3 ACTIVE WELLS AT ONE TIME
         12 ELEMENTS IN RX ARRAY ARE USED BY WEL

 RCH6 -- RECHARGE PACKAGE, VERSION 6, 1/11/2000 INPUT READ FROM UNIT   19
 # RCH package for  SEAWAT, generated by Flopy.
 No named parameters
 OPTION 3 -- RECHARGE TO HIGHEST ACTIVE NODE IN EACH VERTICAL COLUMN
        100 ELEMENTS IN RX ARRAY ARE USED BY RCH
        100 ELEMENTS IN IR ARRAY ARE USED BY RCH

        112  ELEMENTS OF RX ARRAY USED OUT OF        112
          0  ELEMENTS OF RZ ARRAY USED OUT OF          1
        175  ELEMENTS OF IR ARRAY USED OUT OF        175
1
 # BAS6 package for  SEAWAT, generated by Flopy.                                 
                                                                                 



                     BOUNDARY ARRAY FOR LAYER   1
 READING ON UNIT   13 WITH FORMAT:            (100I10) 



                     BOUNDARY ARRAY FOR LAYER   2
 READING ON UNIT   13 WITH FORMAT:            (100I10) 



                     BOUNDARY ARRAY FOR LAYER   3
 READING ON UNIT   13 WITH FORMAT:            (100I10) 



                     BOUNDARY ARRAY FOR LAYER   4
 READING ON UNIT   13 WITH FORMAT:            (100I10) 



                     BOUNDARY ARRAY FOR LAYER   5
 READING ON UNIT   13 WITH FORMAT:            (100I10) 



                     BOUNDARY ARRAY FOR LAYER   6
 READING ON UNIT   13 WITH FORMAT:            (100I10) 



                     BOUNDARY ARRAY FOR LAYER   7
 READING ON UNIT   13 WITH FORMAT:            (100I10) 



                     BOUNDARY ARRAY FOR LAYER   8
 READING ON UNIT   13 WITH FORMAT:            (100I10) 



                     BOUNDARY ARRAY FOR LAYER   9
 READING ON UNIT   13 WITH FORMAT:            (100I10) 



                     BOUNDARY ARRAY FOR LAYER  10
 READING ON UNIT   13 WITH FORMAT:            (100I10) 



                     BOUNDARY ARRAY FOR LAYER  11
 READING ON UNIT   13 WITH FORMAT:            (100I10) 



                     BOUNDARY ARRAY FOR LAYER  12
 READING ON UNIT   13 WITH FORMAT:            (100I10) 



                     BOUNDARY ARRAY FOR LAYER  13
 READING ON UNIT   13 WITH FORMAT:            (100I10) 



                     BOUNDARY ARRAY FOR LAYER  14
 READING ON UNIT   13 WITH FORMAT:            (100I10) 



                     BOUNDARY ARRAY FOR LAYER  15
 READING ON UNIT   13 WITH FORMAT:            (100I10) 

 AQUIFER HEAD WILL BE SET TO -999.99     AT ALL NO-FLOW NODES (IBOUND=0).

             INITIAL HEAD =   0.00000     FOR LAYER   1

             INITIAL HEAD =   0.00000     FOR LAYER   2

             INITIAL HEAD =   0.00000     FOR LAYER   3

             INITIAL HEAD =   0.00000     FOR LAYER   4

             INITIAL HEAD =   0.00000     FOR LAYER   5

             INITIAL HEAD =   0.00000     FOR LAYER   6

             INITIAL HEAD =   0.00000     FOR LAYER   7

             INITIAL HEAD =   0.00000     FOR LAYER   8

             INITIAL HEAD =   0.00000     FOR LAYER   9

             INITIAL HEAD =   0.00000     FOR LAYER  10

             INITIAL HEAD =   0.00000     FOR LAYER  11

             INITIAL HEAD =   0.00000     FOR LAYER  12

             INITIAL HEAD =   0.00000     FOR LAYER  13

             INITIAL HEAD =   0.00000     FOR LAYER  14

             INITIAL HEAD =   0.00000     FOR LAYER  15
 # OC package for  SEAWAT, generated by Flopy.

 OUTPUT CONTROL IS SPECIFIED ONLY AT TIME STEPS FOR WHICH OUTPUT IS DESIRED
 COMPACT CELL-BY-CELL BUDGET FILES WILL BE WRITTEN
 AUXILIARY DATA WILL BE SAVED IN CELL-BY-CELL BUDGET FILES
 HEAD PRINT FORMAT CODE IS   0    DRAWDOWN PRINT FORMAT CODE IS   0
 HEADS WILL BE SAVED ON UNIT   51    DRAWDOWNS WILL BE SAVED ON UNIT    0


     0 Well parameters


     0 Recharge parameters
 LAYER NUMBER  AQUIFER TYPE
 ------------  ------------
       1            0
       2            0
       3            0
       4            0
       5            0
       6            0
       7            0
       8            0
       9            0
      10            0
      11            0
      12            0
      13            0
      14            0
      15            0
                                       WIDTH ALONG ROWS (DELR)  =  100.00000    
                                       WIDTH ALONG COLS (DELC)  =  1.0000000    
                                       TOP ELEV. OF 1ST LAYER   =   0.000000    
                                       CELL THICKNESS (DZ)      =  10.000000     FOR LAYER  1
                                       CELL THICKNESS (DZ)      =  10.000000     FOR LAYER  2
                                       CELL THICKNESS (DZ)      =  10.000000     FOR LAYER  3
                                       CELL THICKNESS (DZ)      =  10.000000     FOR LAYER  4
                                       CELL THICKNESS (DZ)      =  10.000000     FOR LAYER  5
                                       CELL THICKNESS (DZ)      =  10.000000     FOR LAYER  6
                                       CELL THICKNESS (DZ)      =  10.000000     FOR LAYER  7
                                       CELL THICKNESS (DZ)      =  10.000000     FOR LAYER  8
                                       CELL THICKNESS (DZ)      =  10.000000     FOR LAYER  9
                                       CELL THICKNESS (DZ)      =  10.000000     FOR LAYER 10
                                       CELL THICKNESS (DZ)      =  10.000000     FOR LAYER 11
                                       CELL THICKNESS (DZ)      =  10.000000     FOR LAYER 12
                                       CELL THICKNESS (DZ)      =  10.000000     FOR LAYER 13
                                       CELL THICKNESS (DZ)      =  10.000000     FOR LAYER 14
                                       CELL THICKNESS (DZ)      =  10.000000     FOR LAYER 15
                                       POROSITY                 =  0.3500000     FOR LAYER  1
                                       POROSITY                 =  0.3500000     FOR LAYER  2
                                       POROSITY                 =  0.3500000     FOR LAYER  3
                                       POROSITY                 =  0.3500000     FOR LAYER  4
                                       POROSITY                 =  0.3500000     FOR LAYER  5
                                       POROSITY                 =  0.3500000     FOR LAYER  6
                                       POROSITY                 =  0.3500000     FOR LAYER  7
                                       POROSITY                 =  0.3500000     FOR LAYER  8
                                       POROSITY                 =  0.3500000     FOR LAYER  9
                                       POROSITY                 =  0.3500000     FOR LAYER 10
                                       POROSITY                 =  0.3500000     FOR LAYER 11
                                       POROSITY                 =  0.3500000     FOR LAYER 12
                                       POROSITY                 =  0.3500000     FOR LAYER 13
                                       POROSITY                 =  0.3500000     FOR LAYER 14
                                       POROSITY                 =  0.3500000     FOR LAYER 15
                                       CONCN. BOUNDARY ARRAY    =              1 FOR LAYER  1
                                       CONCN. BOUNDARY ARRAY    =              1 FOR LAYER  2
                                       CONCN. BOUNDARY ARRAY    =              1 FOR LAYER  3
                                       CONCN. BOUNDARY ARRAY    =              1 FOR LAYER  4
                                       CONCN. BOUNDARY ARRAY    =              1 FOR LAYER  5
                                       CONCN. BOUNDARY ARRAY    =              1 FOR LAYER  6
                                       CONCN. BOUNDARY ARRAY    =              1 FOR LAYER  7
                                       CONCN. BOUNDARY ARRAY    =              1 FOR LAYER  8
                                       CONCN. BOUNDARY ARRAY    =              1 FOR LAYER  9
                                       CONCN. BOUNDARY ARRAY    =              1 FOR LAYER 10
                                       CONCN. BOUNDARY ARRAY    =              1 FOR LAYER 11
                                       CONCN. BOUNDARY ARRAY    =              1 FOR LAYER 12
                                       CONCN. BOUNDARY ARRAY    =              1 FOR LAYER 13
                                       CONCN. BOUNDARY ARRAY    =              1 FOR LAYER 14
                                       CONCN. BOUNDARY ARRAY    =              1 FOR LAYER 15
                                       INITIAL CONC.: COMP.  01 =   19000.00     FOR LAYER  1
                                       INITIAL CONC.: COMP.  01 =   19000.00     FOR LAYER  2
                                       INITIAL CONC.: COMP.  01 =   19000.00     FOR LAYER  3
                                       INITIAL CONC.: COMP.  01 =   19000.00     FOR LAYER  4
                                       INITIAL CONC.: COMP.  01 =   19000.00     FOR LAYER  5
                                       INITIAL CONC.: COMP.  01 =   19000.00     FOR LAYER  6
                                       INITIAL CONC.: COMP.  01 =   19000.00     FOR LAYER  7
                                       INITIAL CONC.: COMP.  01 =   19000.00     FOR LAYER  8
                                       INITIAL CONC.: COMP.  01 =   19000.00     FOR LAYER  9
                                       INITIAL CONC.: COMP.  01 =   19000.00     FOR LAYER 10
                                       INITIAL CONC.: COMP.  01 =   19000.00     FOR LAYER 11
                                       INITIAL CONC.: COMP.  01 =   19000.00     FOR LAYER 12
                                       INITIAL CONC.: COMP.  01 =   19000.00     FOR LAYER 13
                                       INITIAL CONC.: COMP.  01 =   19000.00     FOR LAYER 14
                                       INITIAL CONC.: COMP.  01 =   19000.00     FOR LAYER 15

 VALUE INDICATING INACTIVE CONCENTRATION CELLS =   0.1000000E+31
 MINIMUM SATURATED THICKNESS [THKMIN] ALLOWED =  0.0100 OF TOTAL CELL THICKNESS


 OUTPUT CONTROL OPTIONS
 ----------------------

 DO NOT PRINT CELL CONCENTRATION
 DO NOT PRINT PARTICLE NUMBER IN EACH CELL
 DO NOT PRINT RETARDATION FACTOR
 DO NOT PRINT DISPERSION COEFFICIENT
 SAVE DISSOLVED PHASE CONCENTRATIONS IN UNFORMATTED FILES [MT3Dnnn.UCN]
  FOR EACH SPECIES ON UNITS 201 AND ABOVE

 NUMBER OF TIMES AT WHICH SIMULATION RESULTS ARE SAVED =   20
 TOTAL ELAPSED TIMES AT WHICH SIMULATION RESULTS ARE SAVED: 
   0.10000E-01   9611.8       19224.       28836.       38447.       48059.       57671.       67283.    
    76895.       86507.       96118.      0.10573E+06  0.11534E+06  0.12495E+06  0.13457E+06  0.14418E+06
   0.15379E+06  0.16340E+06  0.17301E+06  0.18262E+06

 NUMBER OF OBSERVATION POINTS =    0

 SAVE ONE-LINE SUMMARY OF MASS BUDGETS IN FILES [MT3Dnnn.MAS]
  FOR EACH SPECIES ON UNITS 601 AND ABOVE, EVERY  1 TRANSPORT STEPS

 MAXIMUM LENGTH ALONG THE X (J) AXIS =  10000.000    
 MAXIMUM LENGTH ALONG THE Y (I) AXIS =  1.0000000    
 MAXIMUM LENGTH ALONG THE Z (K) AXIS =   150.0000    


 ADVECTION SOLUTION OPTIONS
 --------------------------

 ADVECTION IS SOLVED WITH THE UPSTREAM FINITE DIFFERENCE SCHEME
 COURANT NUMBER ALLOWED IN SOLVING THE ADVECTION TERM = 0.750    


 DISPERSION INPUT PARAMETERS
 ---------------------------

                                       LONG. DISPERSIVITY (AL)  =  1.0000000     FOR LAYER  1
                                       LONG. DISPERSIVITY (AL)  =  1.0000000     FOR LAYER  2
                                       LONG. DISPERSIVITY (AL)  =  1.0000000     FOR LAYER  3
                                       LONG. DISPERSIVITY (AL)  =  1.0000000     FOR LAYER  4
                                       LONG. DISPERSIVITY (AL)  =  1.0000000     FOR LAYER  5
                                       LONG. DISPERSIVITY (AL)  =  1.0000000     FOR LAYER  6
                                       LONG. DISPERSIVITY (AL)  =  1.0000000     FOR LAYER  7
                                       LONG. DISPERSIVITY (AL)  =  1.0000000     FOR LAYER  8
                                       LONG. DISPERSIVITY (AL)  =  1.0000000     FOR LAYER  9
                                       LONG. DISPERSIVITY (AL)  =  1.0000000     FOR LAYER 10
                                       LONG. DISPERSIVITY (AL)  =  1.0000000     FOR LAYER 11
                                       LONG. DISPERSIVITY (AL)  =  1.0000000     FOR LAYER 12
                                       LONG. DISPERSIVITY (AL)  =  1.0000000     FOR LAYER 13
                                       LONG. DISPERSIVITY (AL)  =  1.0000000     FOR LAYER 14
                                       LONG. DISPERSIVITY (AL)  =  1.0000000     FOR LAYER 15
                                       H. TRANS./LONG. DISP.    =  0.1000000E+00
                                       V. TRANS./LONG. DISP.    =  0.1000000E+00
                                       DIFFUSION COEFFICIENT    =   0.000000    



                                               SOLUTION BY THE GENERALIZED CONJUGATE GRADIENT METHOD
                                               -----------------------------------------------------
                                     MAXIMUM OUTER ITERATIONS ALLOWED FOR CLOSURE =        1
                                     MAXIMUM INNER ITERATIONS ALLOWED FOR CLOSURE =      500
                                                    PRECONDITIONING TYPE SELECTED =    1
                                                           ACCELERATION PARAMETER =    1.00000    
                                       CONCENTRATION CHANGE CRITERION FOR CLOSURE =    0.10000E-06
                                       GCG CONCENTRATION CHANGE PRINTOUT INTERVAL =      999


                                   ++++++++++++++++++++++++++++++++++++++++++++++++++++++++++++++
                                                       STRESS PERIOD NO.  001
                                   ++++++++++++++++++++++++++++++++++++++++++++++++++++++++++++++


 LENGTH OF CURRENT STRESS PERIOD =  0.1000000E-08
 NUMBER OF TIME STEPS FOR CURRENT STRESS PERIOD =    1
 TIME STEP MULTIPLIER USED IN FLOW SOLUTION =  1.0000000    
 USER-SPECIFIED TRANSPORT STEPSIZE =   0.000000    D   
 MAXIMUM NUMBER OF TRANSPORT STEPS ALLOWED  IN ONE FLOW TIME STEP =     50000
 MULTIPLIER FOR SUCCESSIVE TRANSPORT STEPS  [USED IN IMPLICIT SCHEMES] =     1.000
 MAXIMUM TRANSPORT STEP SIZE  [USED IN IMPLICIT SCHEMES] =   0.000000    D   
1
                            STRESS PERIOD NO.    1, LENGTH =   0.000000    
                            -----------------------------------------------

                              NUMBER OF TIME STEPS =     1

                               MULTIPLIER FOR DELT =     1.000

                            INITIAL TIME STEP SIZE =   0.000000    

 CONCENTRATION OF RECHARGE FLUXES WILL BE READ IN STRESS PERIOD  1
                                       RECH. CONC. COMP.  01    =   0.000000    

       NO    LAYER   ROW   COLUMN   CONCENTRATION       TYPE            COMPONENT
       1       1       1       1       19000.00         CONSTANT HEAD       1
       2       1       1       2       19000.00         CONSTANT HEAD       1
       3       1       1       3       19000.00         CONSTANT HEAD       1
       4       1       1       4       19000.00         CONSTANT HEAD       1
       5       1       1       5       19000.00         CONSTANT HEAD       1
       6       1       1       6       19000.00         CONSTANT HEAD       1
       7       1       1       7       19000.00         CONSTANT HEAD       1
       8       1       1       8       19000.00         CONSTANT HEAD       1
       9       1       1       9       19000.00         CONSTANT HEAD       1
      10       1       1      10       19000.00         CONSTANT HEAD       1
      11       1       1      11       19000.00         CONSTANT HEAD       1
      12       1       1      12       19000.00         CONSTANT HEAD       1
      13       1       1      13       19000.00         CONSTANT HEAD       1
      14       1       1      14       19000.00         CONSTANT HEAD       1
      15       1       1      15       19000.00         CONSTANT HEAD       1
      16       1       1      16       19000.00         CONSTANT HEAD       1
      17       1       1      17       19000.00         CONSTANT HEAD       1
      18       1       1      18       19000.00         CONSTANT HEAD       1
      19       1       1      19       19000.00         CONSTANT HEAD       1
      20       1       1      20       19000.00         CONSTANT HEAD       1
      21       1       1      21       19000.00         CONSTANT HEAD       1
      22       1       1      22       19000.00         CONSTANT HEAD       1
      23       1       1      23       19000.00         CONSTANT HEAD       1
      24       1       1      24       19000.00         CONSTANT HEAD       1
      25       1       1      25       19000.00         CONSTANT HEAD       1
      26       1       1      26       19000.00         CONSTANT HEAD       1
      27       1       1      27       19000.00         CONSTANT HEAD       1
      28       1       1      28       19000.00         CONSTANT HEAD       1
      29       1       1      29       19000.00         CONSTANT HEAD       1
      30       1       1      30       19000.00         CONSTANT HEAD       1
      31       1       1      71       19000.00         CONSTANT HEAD       1
      32       1       1      72       19000.00         CONSTANT HEAD       1
      33       1       1      73       19000.00         CONSTANT HEAD       1
      34       1       1      74       19000.00         CONSTANT HEAD       1
      35       1       1      75       19000.00         CONSTANT HEAD       1
      36       1       1      76       19000.00         CONSTANT HEAD       1
      37       1       1      77       19000.00         CONSTANT HEAD       1
      38       1       1      78       19000.00         CONSTANT HEAD       1
      39       1       1      79       19000.00         CONSTANT HEAD       1
      40       1       1      80       19000.00         CONSTANT HEAD       1
      41       1       1      81       19000.00         CONSTANT HEAD       1
      42       1       1      82       19000.00         CONSTANT HEAD       1
      43       1       1      83       19000.00         CONSTANT HEAD       1
      44       1       1      84       19000.00         CONSTANT HEAD       1
      45       1       1      85       19000.00         CONSTANT HEAD       1
      46       1       1      86       19000.00         CONSTANT HEAD       1
      47       1       1      87       19000.00         CONSTANT HEAD       1
      48       1       1      88       19000.00         CONSTANT HEAD       1
      49       1       1      89       19000.00         CONSTANT HEAD       1
      50       1       1      90       19000.00         CONSTANT HEAD       1
      51       1       1      91       19000.00         CONSTANT HEAD       1
      52       1       1      92       19000.00         CONSTANT HEAD       1
      53       1       1      93       19000.00         CONSTANT HEAD       1
      54       1       1      94       19000.00         CONSTANT HEAD       1
      55       1       1      95       19000.00         CONSTANT HEAD       1
      56       1       1      96       19000.00         CONSTANT HEAD       1
      57       1       1      97       19000.00         CONSTANT HEAD       1
      58       1       1      98       19000.00         CONSTANT HEAD       1
      59       1       1      99       19000.00         CONSTANT HEAD       1
      60       1       1     100       19000.00         CONSTANT HEAD       1

 WELL NO.  LAYER   ROW   COL   STRESS RATE         
 --------------------------------------------------
      1      5      1     46       0.000    
      2      5      1     51       0.000    
      3      5      1     56       0.000    

      3 WELLS



                           RECHARGE
 READING ON UNIT 3006 WITH FORMAT:          (100E15.6) 


                                          ================================================
                                                         FROM TIME =   0.0000     TO   0.10000E-08

 
 SOLVING FOR HEAD 
 FLOW MODEL IS STEADY-STATE
 FLOW MODEL CONTAINS CONSTANT-HEAD CELLS


 MAXIMUM STEPSIZE DURING WHICH ANY PARTICLE CANNOT MOVE MORE THAN ONE CELL
 =  588.1    (WHEN MIN. R.F.=1)  AT K=   2, I=   1, J=  30

 MAXIMUM STEPSIZE WHICH MEETS STABILITY CRITERION OF THE ADVECTION TERM
 (FOR PURE FINITE-DIFFERENCE OPTION, MIXELM=0) 
 =  384.1    (WHEN MIN. R.F.=1)  AT K=   2, I=   1, J=  71


 TOTAL NUMBER OF POINT SOURCES/SINKS PRESENT IN THE FLOW MODEL =    63

 MAXIMUM STEPSIZE WHICH MEETS STABILITY CRITERION OF THE SINK & SOURCE TERM
 =  3500.    (WHEN MIN. R.F.=1)  AT K=   1, I=   1, J=  31

 MAXIMUM STEPSIZE WHICH MEETS STABILITY CRITERION OF THE DISPERSION TERM
 =  3802.    (WHEN MIN. R.F.=1)  AT K=   1, I=   1, J=  30


     1 CALLS TO GCG PACKAGE FOR TRANSPORT TIME STEP   1 IN FLOW TIME STEP   1 STRESS PERIOD   1
     1 TOTAL ITERATIONS
  MAXIMUM CONCENTRATION CHANGES FOR EACH ITERATION:
  MAX. CHANGE LAYER,ROW,COL MAX. CHANGE LAYER,ROW,COL MAX. CHANGE LAYER,ROW,COL MAX. CHANGE LAYER,ROW,COL MAX. CHANGE LAYER,ROW,COL
 ------------------------------------------------------------------------------------------------------------------------------------
    0.000     (  1,  1,  1)

 OUTPUT CONTROL FOR STRESS PERIOD    1   TIME STEP   1
    SAVE HEAD FOR ALL LAYERS
    SAVE BUDGET
 UBDSV2 SAVING "   CONSTANT HEAD" ON UNIT  53 AT TIME STEP  1, STRESS PERIOD   1
 UBDSV1 SAVING "FLOW RIGHT FACE " ON UNIT  53 AT TIME STEP  1, STRESS PERIOD   1
 UBDSV1 SAVING "FLOW LOWER FACE " ON UNIT  53 AT TIME STEP  1, STRESS PERIOD   1
 UBDSV1 SAVING "            DCDT" ON UNIT  53 AT TIME STEP  1, STRESS PERIOD   1



 >>>>>>>>>>>>>>>>>>>>>>>>>>>>>>>>>>>>>>>>>>>>>>>>>>>>>>>FOR COMPONENT NO. 01<<<<<<<<<<<<<<<<<<<<<<<<<<<<<<<<<<<<<<<<<<<<<<<<<<<<<<<


                                            -------------------------------------------
                                                      TRANSPORT STEP NO.    1
                                            -------------------------------------------

 TOTAL ELAPSED TIME SINCE BEGINNING OF SIMULATION =  0.1000000E-08D   
 .....................................................................

                     CUMULATIVE MASS BUDGETS AT END OF TRANSPORT STEP    1, TIME STEP    1, STRESS PERIOD    1
                     ------------------------------------------------------------------------------------------

                                                             IN                           OUT
                                                      ----------------             ----------------
                               CONSTANT CONCENTRATION:    0.000000                    0.000000    
                                        CONSTANT HEAD:    0.000000                  -0.7416805E-04
                                                WELLS:    0.000000                    0.000000    
                                             RECHARGE:    0.000000                    0.000000    
                               MASS STOR (FLOW MODEL):    0.000000                    0.000000    
                                MASS STORAGE (SOLUTE):    0.000000                    0.000000    
                            ---------------------------------------------------------------------------
                                              [TOTAL]:    0.000000     KG           -0.7416805E-04 KG  

                                                          NET (IN - OUT):  -0.7416805E-04
                                                   DISCREPANCY (PERCENT):   -200.0000    

 HEAD WILL BE SAVED ON UNIT   51 AT END OF TIME STEP   1, STRESS PERIOD    1
1
  MASS BUDGET FOR ENTIRE MODEL AT END OF TIME STEP  1 IN STRESS PERIOD   1
  ------------------------------------------------------------------------------

     CUMULATIVE MASS      M       RATES FOR THIS TIME STEP      M/T
     ------------------                 ------------------------

           IN:                                      IN:
           ---                                      ---
             STORAGE =           0.0000               STORAGE =           0.0000
       CONSTANT HEAD =           0.0000         CONSTANT HEAD =           0.0000
               WELLS =           0.0000                 WELLS =           0.0000
            RECHARGE =       4.0000E-06              RECHARGE =        4000.0000
                DCDT =           0.0000                  DCDT =           0.0000

            TOTAL IN =       4.0000E-06              TOTAL IN =        4000.0000

          OUT:                                     OUT:
          ----                                     ----
             STORAGE =           0.0000               STORAGE =           0.0000
       CONSTANT HEAD =       4.0000E-06         CONSTANT HEAD =        4000.0000
               WELLS =           0.0000                 WELLS =           0.0000
            RECHARGE =           0.0000              RECHARGE =           0.0000
                DCDT =           0.0000                  DCDT =           0.0000

           TOTAL OUT =       4.0000E-06             TOTAL OUT =        4000.0000

            IN - OUT =      -5.3010E-15              IN - OUT =      -5.3010E-06

 PERCENT DISCREPANCY =          -0.00     PERCENT DISCREPANCY =          -0.00



0


          TIME SUMMARY AT END OF TRANSPORT STEP    1 IN TIME STEP    1 IN STRESS PERIOD   1
                    SECONDS     MINUTES      HOURS       DAYS        YEARS
                    -----------------------------------------------------------
  TRANS STEP LENGTH 8.64000E-05 1.44000E-06 2.40000E-08 1.00000E-09 2.73785E-12
   TIME STEP LENGTH 8.64000E-05 1.44000E-06 2.40000E-08 1.00000E-09 2.73785E-12
 STRESS PERIOD TIME 8.64000E-05 1.44000E-06 2.40000E-08 1.00000E-09 2.73785E-12
         TOTAL TIME 8.64000E-05 1.44000E-06 2.40000E-08 1.00000E-09 2.73785E-12
1


                                   ++++++++++++++++++++++++++++++++++++++++++++++++++++++++++++++
                                                       STRESS PERIOD NO.  002
                                   ++++++++++++++++++++++++++++++++++++++++++++++++++++++++++++++


 LENGTH OF CURRENT STRESS PERIOD =   9131.250    
 NUMBER OF TIME STEPS FOR CURRENT STRESS PERIOD =   25
 TIME STEP MULTIPLIER USED IN FLOW SOLUTION =  1.0000000    
 USER-SPECIFIED TRANSPORT STEPSIZE =   0.000000    D   
 MAXIMUM NUMBER OF TRANSPORT STEPS ALLOWED  IN ONE FLOW TIME STEP =     50000
 MULTIPLIER FOR SUCCESSIVE TRANSPORT STEPS  [USED IN IMPLICIT SCHEMES] =     1.000
 MAXIMUM TRANSPORT STEP SIZE  [USED IN IMPLICIT SCHEMES] =   0.000000    D   
1
                            STRESS PERIOD NO.    2, LENGTH =   9131.250    
                            -----------------------------------------------

                              NUMBER OF TIME STEPS =    25

                               MULTIPLIER FOR DELT =     1.000

                            INITIAL TIME STEP SIZE =   365.2500    

 CONCENTRATION OF RECHARGE FLUXES REUSED FROM LAST STRESS PERIOD

 POINT SINKS/SOURCES OF SPECIFIED CONCENTRATION REUSED FROM LAST STRESS PERIOD

 WELL NO.  LAYER   ROW   COL   STRESS RATE         
 --------------------------------------------------
      1      5      1     46       0.000    
      2      5      1     51       0.000    
      3      5      1     56       0.000    

      3 WELLS

 REUSING RECH FROM LAST STRESS PERIOD


                                          ================================================
                                                         FROM TIME =  0.10000E-08 TO    365.25    

 
 SOLVING FOR HEAD 
 FLOW MODEL IS STEADY-STATE
 FLOW MODEL CONTAINS CONSTANT-HEAD CELLS


 MAXIMUM STEPSIZE DURING WHICH ANY PARTICLE CANNOT MOVE MORE THAN ONE CELL
 =  588.1    (WHEN MIN. R.F.=1)  AT K=   2, I=   1, J=  30

 MAXIMUM STEPSIZE WHICH MEETS STABILITY CRITERION OF THE ADVECTION TERM
 (FOR PURE FINITE-DIFFERENCE OPTION, MIXELM=0) 
 =  384.1    (WHEN MIN. R.F.=1)  AT K=   2, I=   1, J=  71


 TOTAL NUMBER OF POINT SOURCES/SINKS PRESENT IN THE FLOW MODEL =    63

 MAXIMUM STEPSIZE WHICH MEETS STABILITY CRITERION OF THE SINK & SOURCE TERM
 =  3500.    (WHEN MIN. R.F.=1)  AT K=   1, I=   1, J=  31

 MAXIMUM STEPSIZE WHICH MEETS STABILITY CRITERION OF THE DISPERSION TERM
 =  3802.    (WHEN MIN. R.F.=1)  AT K=   1, I=   1, J=  30


     1 CALLS TO GCG PACKAGE FOR TRANSPORT TIME STEP   1 IN FLOW TIME STEP   1 STRESS PERIOD   2
     2 TOTAL ITERATIONS

 NO OUTPUT CONTROL FOR STRESS PERIOD    2   TIME STEP   1



 >>>>>>>>>>>>>>>>>>>>>>>>>>>>>>>>>>>>>>>>>>>>>>>>>>>>>>>FOR COMPONENT NO. 01<<<<<<<<<<<<<<<<<<<<<<<<<<<<<<<<<<<<<<<<<<<<<<<<<<<<<<<


                                            -------------------------------------------
                                                      TRANSPORT STEP NO.    1
                                            -------------------------------------------

 TOTAL ELAPSED TIME SINCE BEGINNING OF SIMULATION =  0.1000000E-01D   
 .....................................................................

                     CUMULATIVE MASS BUDGETS AT END OF TRANSPORT STEP    1, TIME STEP    1, STRESS PERIOD    2
                     ------------------------------------------------------------------------------------------

                                                             IN                           OUT
                                                      ----------------             ----------------
                               CONSTANT CONCENTRATION:    0.000000                    0.000000    
                                        CONSTANT HEAD:    0.000000                   -741.6805    
                                                WELLS:    0.000000                    0.000000    
                                             RECHARGE:    0.000000                    0.000000    
                               MASS STOR (FLOW MODEL):    0.000000                    0.000000    
                                MASS STORAGE (SOLUTE):    741.6805                  -0.5060701E-04
                            ---------------------------------------------------------------------------
                                              [TOTAL]:    741.6805     KG            -741.6805     KG  

                                                          NET (IN - OUT):  -0.7395053E-04
                                                   DISCREPANCY (PERCENT):  -0.9970671E-05
 
 SOLVING FOR HEAD 
 FLOW MODEL IS STEADY-STATE
 FLOW MODEL CONTAINS CONSTANT-HEAD CELLS


 MAXIMUM STEPSIZE DURING WHICH ANY PARTICLE CANNOT MOVE MORE THAN ONE CELL
 =  574.3    (WHEN MIN. R.F.=1)  AT K=   2, I=   1, J=  30

 MAXIMUM STEPSIZE WHICH MEETS STABILITY CRITERION OF THE ADVECTION TERM
 (FOR PURE FINITE-DIFFERENCE OPTION, MIXELM=0) 
 =  375.1    (WHEN MIN. R.F.=1)  AT K=   2, I=   1, J=  71


 TOTAL NUMBER OF POINT SOURCES/SINKS PRESENT IN THE FLOW MODEL =    63

 MAXIMUM STEPSIZE WHICH MEETS STABILITY CRITERION OF THE SINK & SOURCE TERM
 =  3500.    (WHEN MIN. R.F.=1)  AT K=   1, I=   1, J=  31

 MAXIMUM STEPSIZE WHICH MEETS STABILITY CRITERION OF THE DISPERSION TERM
 =  3713.    (WHEN MIN. R.F.=1)  AT K=   1, I=   1, J=  30
     1 CALLS TO GCG PACKAGE FOR TRANSPORT TIME STEP   2 IN FLOW TIME STEP   1 STRESS PERIOD   2
     9 TOTAL ITERATIONS
  MAXIMUM CONCENTRATION CHANGES FOR EACH ITERATION:
  MAX. CHANGE LAYER,ROW,COL MAX. CHANGE LAYER,ROW,COL MAX. CHANGE LAYER,ROW,COL MAX. CHANGE LAYER,ROW,COL MAX. CHANGE LAYER,ROW,COL
 ------------------------------------------------------------------------------------------------------------------------------------
   0.9926E-01 (  1,  1, 50)  0.1313E-01 (  1,  1, 71)  0.1187E-02 (  2,  1, 50)  0.2167E-03 (  1,  1, 30)  0.3162E-04 (  1,  1, 71)
   0.3661E-05 (  1,  1, 30)  0.4998E-06 (  4,  1, 50)  0.1702E-06 (  1,  1, 30)  0.1309E-07 (  1,  1, 30)


                                          ================================================
                                                         FROM TIME =   365.25     TO    730.50    

 
 SOLVING FOR HEAD 
 FLOW MODEL IS STEADY-STATE
 FLOW MODEL CONTAINS CONSTANT-HEAD CELLS


 MAXIMUM STEPSIZE DURING WHICH ANY PARTICLE CANNOT MOVE MORE THAN ONE CELL
 =  572.9    (WHEN MIN. R.F.=1)  AT K=   2, I=   1, J=  30

 MAXIMUM STEPSIZE WHICH MEETS STABILITY CRITERION OF THE ADVECTION TERM
 (FOR PURE FINITE-DIFFERENCE OPTION, MIXELM=0) 
 =  375.6    (WHEN MIN. R.F.=1)  AT K=   2, I=   1, J=  30


 TOTAL NUMBER OF POINT SOURCES/SINKS PRESENT IN THE FLOW MODEL =    63

 MAXIMUM STEPSIZE WHICH MEETS STABILITY CRITERION OF THE SINK & SOURCE TERM
 =  3500.    (WHEN MIN. R.F.=1)  AT K=   1, I=   1, J=  31

 MAXIMUM STEPSIZE WHICH MEETS STABILITY CRITERION OF THE DISPERSION TERM
 =  3706.    (WHEN MIN. R.F.=1)  AT K=   1, I=   1, J=  30


     1 CALLS TO GCG PACKAGE FOR TRANSPORT TIME STEP   1 IN FLOW TIME STEP   2 STRESS PERIOD   2
     8 TOTAL ITERATIONS
  MAXIMUM CONCENTRATION CHANGES FOR EACH ITERATION:
  MAX. CHANGE LAYER,ROW,COL MAX. CHANGE LAYER,ROW,COL MAX. CHANGE LAYER,ROW,COL MAX. CHANGE LAYER,ROW,COL MAX. CHANGE LAYER,ROW,COL
 ------------------------------------------------------------------------------------------------------------------------------------
   0.9011E-01 (  1,  1, 50)  0.1159E-01 (  1,  1, 30)  0.1276E-02 (  2,  1, 50)  0.1946E-03 (  1,  1, 71)  0.2096E-04 (  3,  1, 51)
   0.5018E-05 (  1,  1, 71)  0.8737E-06 (  1,  1, 30)  0.7374E-07 (  1,  1, 71)

 NO OUTPUT CONTROL FOR STRESS PERIOD    2   TIME STEP   2


                                          ================================================
                                                         FROM TIME =   730.50     TO    1095.8    

 
 SOLVING FOR HEAD 
 FLOW MODEL IS STEADY-STATE
 FLOW MODEL CONTAINS CONSTANT-HEAD CELLS


 MAXIMUM STEPSIZE DURING WHICH ANY PARTICLE CANNOT MOVE MORE THAN ONE CELL
 =  566.6    (WHEN MIN. R.F.=1)  AT K=   2, I=   1, J=  30

 MAXIMUM STEPSIZE WHICH MEETS STABILITY CRITERION OF THE ADVECTION TERM
 (FOR PURE FINITE-DIFFERENCE OPTION, MIXELM=0) 
 =  372.6    (WHEN MIN. R.F.=1)  AT K=   2, I=   1, J=  30


 TOTAL NUMBER OF POINT SOURCES/SINKS PRESENT IN THE FLOW MODEL =    63

 MAXIMUM STEPSIZE WHICH MEETS STABILITY CRITERION OF THE SINK & SOURCE TERM
 =  3500.    (WHEN MIN. R.F.=1)  AT K=   1, I=   1, J=  31

 MAXIMUM STEPSIZE WHICH MEETS STABILITY CRITERION OF THE DISPERSION TERM
 =  3657.    (WHEN MIN. R.F.=1)  AT K=   1, I=   1, J=  30


     1 CALLS TO GCG PACKAGE FOR TRANSPORT TIME STEP   1 IN FLOW TIME STEP   3 STRESS PERIOD   2
     8 TOTAL ITERATIONS
  MAXIMUM CONCENTRATION CHANGES FOR EACH ITERATION:
  MAX. CHANGE LAYER,ROW,COL MAX. CHANGE LAYER,ROW,COL MAX. CHANGE LAYER,ROW,COL MAX. CHANGE LAYER,ROW,COL MAX. CHANGE LAYER,ROW,COL
 ------------------------------------------------------------------------------------------------------------------------------------
   0.8179E-01 (  1,  1, 51)  0.1011E-01 (  1,  1, 30)  0.1281E-02 (  2,  1, 51)  0.1765E-03 (  3,  1, 51)  0.2069E-04 (  3,  1, 51)
   0.3552E-05 (  1,  1, 71)  0.1449E-05 (  1,  1, 30)  0.9066E-07 (  1,  1, 71)

 NO OUTPUT CONTROL FOR STRESS PERIOD    2   TIME STEP   3


                                          ================================================
                                                         FROM TIME =   1095.8     TO    1461.0    

 
 SOLVING FOR HEAD 
 FLOW MODEL IS STEADY-STATE
 FLOW MODEL CONTAINS CONSTANT-HEAD CELLS


 MAXIMUM STEPSIZE DURING WHICH ANY PARTICLE CANNOT MOVE MORE THAN ONE CELL
 =  557.9    (WHEN MIN. R.F.=1)  AT K=   2, I=   1, J=  30

 MAXIMUM STEPSIZE WHICH MEETS STABILITY CRITERION OF THE ADVECTION TERM
 (FOR PURE FINITE-DIFFERENCE OPTION, MIXELM=0) 
 =  367.6    (WHEN MIN. R.F.=1)  AT K=   2, I=   1, J=  30


 TOTAL NUMBER OF POINT SOURCES/SINKS PRESENT IN THE FLOW MODEL =    63

 MAXIMUM STEPSIZE WHICH MEETS STABILITY CRITERION OF THE SINK & SOURCE TERM
 =  3500.    (WHEN MIN. R.F.=1)  AT K=   1, I=   1, J=  31

 MAXIMUM STEPSIZE WHICH MEETS STABILITY CRITERION OF THE DISPERSION TERM
 =  3589.    (WHEN MIN. R.F.=1)  AT K=   1, I=   1, J=  30


     1 CALLS TO GCG PACKAGE FOR TRANSPORT TIME STEP   1 IN FLOW TIME STEP   4 STRESS PERIOD   2
     8 TOTAL ITERATIONS
  MAXIMUM CONCENTRATION CHANGES FOR EACH ITERATION:
  MAX. CHANGE LAYER,ROW,COL MAX. CHANGE LAYER,ROW,COL MAX. CHANGE LAYER,ROW,COL MAX. CHANGE LAYER,ROW,COL MAX. CHANGE LAYER,ROW,COL
 ------------------------------------------------------------------------------------------------------------------------------------
   0.7427E-01 (  1,  1, 50)  0.8872E-02 (  1,  1, 30)  0.1245E-02 (  2,  1, 51)  0.1517E-03 (  3,  1, 51)  0.1592E-04 (  3,  1, 50)
   0.7816E-05 (  1,  1, 71)  0.3964E-05 (  1,  1, 71)  0.8967E-07 (  2,  1, 51)

 NO OUTPUT CONTROL FOR STRESS PERIOD    2   TIME STEP   4


                                          ================================================
                                                         FROM TIME =   1461.0     TO    1826.3    

 
 SOLVING FOR HEAD 
 FLOW MODEL IS STEADY-STATE
 FLOW MODEL CONTAINS CONSTANT-HEAD CELLS


 MAXIMUM STEPSIZE DURING WHICH ANY PARTICLE CANNOT MOVE MORE THAN ONE CELL
 =  548.3    (WHEN MIN. R.F.=1)  AT K=   2, I=   1, J=  30

 MAXIMUM STEPSIZE WHICH MEETS STABILITY CRITERION OF THE ADVECTION TERM
 (FOR PURE FINITE-DIFFERENCE OPTION, MIXELM=0) 
 =  361.7    (WHEN MIN. R.F.=1)  AT K=   2, I=   1, J=  30


 TOTAL NUMBER OF POINT SOURCES/SINKS PRESENT IN THE FLOW MODEL =    63

 MAXIMUM STEPSIZE WHICH MEETS STABILITY CRITERION OF THE SINK & SOURCE TERM
 =  3500.    (WHEN MIN. R.F.=1)  AT K=   1, I=   1, J=  31

 MAXIMUM STEPSIZE WHICH MEETS STABILITY CRITERION OF THE DISPERSION TERM
 =  3514.    (WHEN MIN. R.F.=1)  AT K=   1, I=   1, J=  30


     1 CALLS TO GCG PACKAGE FOR TRANSPORT TIME STEP   1 IN FLOW TIME STEP   5 STRESS PERIOD   2
     8 TOTAL ITERATIONS
  MAXIMUM CONCENTRATION CHANGES FOR EACH ITERATION:
  MAX. CHANGE LAYER,ROW,COL MAX. CHANGE LAYER,ROW,COL MAX. CHANGE LAYER,ROW,COL MAX. CHANGE LAYER,ROW,COL MAX. CHANGE LAYER,ROW,COL
 ------------------------------------------------------------------------------------------------------------------------------------
   0.6750E-01 (  1,  1, 49)  0.7921E-02 (  1,  1, 71)  0.1195E-02 (  2,  1, 51)  0.1254E-03 (  3,  1, 51)  0.2015E-04 (  2,  1, 48)
   0.2787E-05 (  1,  1, 71)  0.4405E-05 (  1,  1, 71)  0.6989E-07 (  3,  1, 36)

 NO OUTPUT CONTROL FOR STRESS PERIOD    2   TIME STEP   5


                                          ================================================
                                                         FROM TIME =   1826.3     TO    2191.5    

 
 SOLVING FOR HEAD 
 FLOW MODEL IS STEADY-STATE
 FLOW MODEL CONTAINS CONSTANT-HEAD CELLS


 MAXIMUM STEPSIZE DURING WHICH ANY PARTICLE CANNOT MOVE MORE THAN ONE CELL
 =  538.6    (WHEN MIN. R.F.=1)  AT K=   2, I=   1, J=  30

 MAXIMUM STEPSIZE WHICH MEETS STABILITY CRITERION OF THE ADVECTION TERM
 (FOR PURE FINITE-DIFFERENCE OPTION, MIXELM=0) 
 =  355.5    (WHEN MIN. R.F.=1)  AT K=   2, I=   1, J=  30


 TOTAL NUMBER OF POINT SOURCES/SINKS PRESENT IN THE FLOW MODEL =    63

 MAXIMUM STEPSIZE WHICH MEETS STABILITY CRITERION OF THE SINK & SOURCE TERM
 =  3500.    (WHEN MIN. R.F.=1)  AT K=   1, I=   1, J=  31

 MAXIMUM STEPSIZE WHICH MEETS STABILITY CRITERION OF THE DISPERSION TERM
 =  3439.    (WHEN MIN. R.F.=1)  AT K=   1, I=   1, J=  30


     1 CALLS TO GCG PACKAGE FOR TRANSPORT TIME STEP   1 IN FLOW TIME STEP   6 STRESS PERIOD   2
     8 TOTAL ITERATIONS
  MAXIMUM CONCENTRATION CHANGES FOR EACH ITERATION:
  MAX. CHANGE LAYER,ROW,COL MAX. CHANGE LAYER,ROW,COL MAX. CHANGE LAYER,ROW,COL MAX. CHANGE LAYER,ROW,COL MAX. CHANGE LAYER,ROW,COL
 ------------------------------------------------------------------------------------------------------------------------------------
   0.6136E-01 (  1,  1, 52)  0.7262E-02 (  1,  1, 71)  0.1462E-02 (  2,  1, 51)  0.3889E-03 (  1,  1, 71)  0.6949E-03 (  2,  1, 51)
   0.8145E-06 (  1,  1, 71)  0.1142E-05 (  1,  1, 71)  0.2244E-07 (  4,  1, 51)

 NO OUTPUT CONTROL FOR STRESS PERIOD    2   TIME STEP   6


                                          ================================================
                                                         FROM TIME =   2191.5     TO    2556.8    

 
 SOLVING FOR HEAD 
 FLOW MODEL IS STEADY-STATE
 FLOW MODEL CONTAINS CONSTANT-HEAD CELLS


 MAXIMUM STEPSIZE DURING WHICH ANY PARTICLE CANNOT MOVE MORE THAN ONE CELL
 =  529.1    (WHEN MIN. R.F.=1)  AT K=   2, I=   1, J=  30

 MAXIMUM STEPSIZE WHICH MEETS STABILITY CRITERION OF THE ADVECTION TERM
 (FOR PURE FINITE-DIFFERENCE OPTION, MIXELM=0) 
 =  349.1    (WHEN MIN. R.F.=1)  AT K=   2, I=   1, J=  30


 TOTAL NUMBER OF POINT SOURCES/SINKS PRESENT IN THE FLOW MODEL =    63

 MAXIMUM STEPSIZE WHICH MEETS STABILITY CRITERION OF THE SINK & SOURCE TERM
 =  3500.    (WHEN MIN. R.F.=1)  AT K=   1, I=   1, J=  31

 MAXIMUM STEPSIZE WHICH MEETS STABILITY CRITERION OF THE DISPERSION TERM
 =  3367.    (WHEN MIN. R.F.=1)  AT K=   1, I=   1, J=  30


     1 CALLS TO GCG PACKAGE FOR TRANSPORT TIME STEP   1 IN FLOW TIME STEP   7 STRESS PERIOD   2
     8 TOTAL ITERATIONS
  MAXIMUM CONCENTRATION CHANGES FOR EACH ITERATION:
  MAX. CHANGE LAYER,ROW,COL MAX. CHANGE LAYER,ROW,COL MAX. CHANGE LAYER,ROW,COL MAX. CHANGE LAYER,ROW,COL MAX. CHANGE LAYER,ROW,COL
 ------------------------------------------------------------------------------------------------------------------------------------
   0.5576E-01 (  1,  1, 49)  0.6932E-02 (  1,  1, 30)  0.1167E-02 (  1,  1, 50)  0.1009E-03 (  2,  1, 50)  0.4486E-04 (  1,  1, 30)
   0.6313E-06 (  1,  1, 71)  0.3160E-05 (  1,  1, 71)  0.3238E-07 (  1,  1, 30)

 NO OUTPUT CONTROL FOR STRESS PERIOD    2   TIME STEP   7


                                          ================================================
                                                         FROM TIME =   2556.8     TO    2922.0    

 
 SOLVING FOR HEAD 
 FLOW MODEL IS STEADY-STATE
 FLOW MODEL CONTAINS CONSTANT-HEAD CELLS


 MAXIMUM STEPSIZE DURING WHICH ANY PARTICLE CANNOT MOVE MORE THAN ONE CELL
 =  519.9    (WHEN MIN. R.F.=1)  AT K=   2, I=   1, J=  30

 MAXIMUM STEPSIZE WHICH MEETS STABILITY CRITERION OF THE ADVECTION TERM
 (FOR PURE FINITE-DIFFERENCE OPTION, MIXELM=0) 
 =  342.9    (WHEN MIN. R.F.=1)  AT K=   2, I=   1, J=  30


 TOTAL NUMBER OF POINT SOURCES/SINKS PRESENT IN THE FLOW MODEL =    63

 MAXIMUM STEPSIZE WHICH MEETS STABILITY CRITERION OF THE SINK & SOURCE TERM
 =  3500.    (WHEN MIN. R.F.=1)  AT K=   1, I=   1, J=  31

 MAXIMUM STEPSIZE WHICH MEETS STABILITY CRITERION OF THE DISPERSION TERM
 =  3297.    (WHEN MIN. R.F.=1)  AT K=   1, I=   1, J=  30


     1 CALLS TO GCG PACKAGE FOR TRANSPORT TIME STEP   1 IN FLOW TIME STEP   8 STRESS PERIOD   2
     8 TOTAL ITERATIONS
  MAXIMUM CONCENTRATION CHANGES FOR EACH ITERATION:
  MAX. CHANGE LAYER,ROW,COL MAX. CHANGE LAYER,ROW,COL MAX. CHANGE LAYER,ROW,COL MAX. CHANGE LAYER,ROW,COL MAX. CHANGE LAYER,ROW,COL
 ------------------------------------------------------------------------------------------------------------------------------------
   0.5066E-01 (  1,  1, 49)  0.7232E-02 (  1,  1, 30)  0.2002E-02 (  1,  1, 50)  0.9061E-04 (  1,  1, 71)  0.3723E-04 (  1,  1, 30)
   0.5720E-05 (  1,  1, 71)  0.2908E-05 (  1,  1, 71)  0.3499E-07 (  1,  1, 30)

 NO OUTPUT CONTROL FOR STRESS PERIOD    2   TIME STEP   8


                                          ================================================
                                                         FROM TIME =   2922.0     TO    3287.3    

 
 SOLVING FOR HEAD 
 FLOW MODEL IS STEADY-STATE
 FLOW MODEL CONTAINS CONSTANT-HEAD CELLS


 MAXIMUM STEPSIZE DURING WHICH ANY PARTICLE CANNOT MOVE MORE THAN ONE CELL
 =  511.1    (WHEN MIN. R.F.=1)  AT K=   2, I=   1, J=  30

 MAXIMUM STEPSIZE WHICH MEETS STABILITY CRITERION OF THE ADVECTION TERM
 (FOR PURE FINITE-DIFFERENCE OPTION, MIXELM=0) 
 =  336.7    (WHEN MIN. R.F.=1)  AT K=   2, I=   1, J=  30


 TOTAL NUMBER OF POINT SOURCES/SINKS PRESENT IN THE FLOW MODEL =    63

 MAXIMUM STEPSIZE WHICH MEETS STABILITY CRITERION OF THE SINK & SOURCE TERM
 =  3500.    (WHEN MIN. R.F.=1)  AT K=   1, I=   1, J=  31

 MAXIMUM STEPSIZE WHICH MEETS STABILITY CRITERION OF THE DISPERSION TERM
 =  3231.    (WHEN MIN. R.F.=1)  AT K=   1, I=   1, J=  30


     1 CALLS TO GCG PACKAGE FOR TRANSPORT TIME STEP   1 IN FLOW TIME STEP   9 STRESS PERIOD   2
     9 TOTAL ITERATIONS
  MAXIMUM CONCENTRATION CHANGES FOR EACH ITERATION:
  MAX. CHANGE LAYER,ROW,COL MAX. CHANGE LAYER,ROW,COL MAX. CHANGE LAYER,ROW,COL MAX. CHANGE LAYER,ROW,COL MAX. CHANGE LAYER,ROW,COL
 ------------------------------------------------------------------------------------------------------------------------------------
   0.4602E-01 (  1,  1, 49)  0.1266E-01 (  1,  1, 50)  0.7831E-02 (  1,  1, 50)  0.8819E-04 (  1,  1, 71)  0.3871E-04 (  1,  1, 30)
   0.3405E-05 (  1,  1, 71)  0.5381E-06 (  3,  1, 52)  0.1161E-06 (  3,  1, 51)  0.4976E-08 (  1,  1, 30)

 NO OUTPUT CONTROL FOR STRESS PERIOD    2   TIME STEP   9


                                          ================================================
                                                         FROM TIME =   3287.3     TO    3652.5    

 
 SOLVING FOR HEAD 
 FLOW MODEL IS STEADY-STATE
 FLOW MODEL CONTAINS CONSTANT-HEAD CELLS


 MAXIMUM STEPSIZE DURING WHICH ANY PARTICLE CANNOT MOVE MORE THAN ONE CELL
 =  502.6    (WHEN MIN. R.F.=1)  AT K=   2, I=   1, J=  30

 MAXIMUM STEPSIZE WHICH MEETS STABILITY CRITERION OF THE ADVECTION TERM
 (FOR PURE FINITE-DIFFERENCE OPTION, MIXELM=0) 
 =  330.6    (WHEN MIN. R.F.=1)  AT K=   2, I=   1, J=  30


 TOTAL NUMBER OF POINT SOURCES/SINKS PRESENT IN THE FLOW MODEL =    63

 MAXIMUM STEPSIZE WHICH MEETS STABILITY CRITERION OF THE SINK & SOURCE TERM
 =  3500.    (WHEN MIN. R.F.=1)  AT K=   1, I=   1, J=  31

 MAXIMUM STEPSIZE WHICH MEETS STABILITY CRITERION OF THE DISPERSION TERM
 =  3168.    (WHEN MIN. R.F.=1)  AT K=   1, I=   1, J=  30


     1 CALLS TO GCG PACKAGE FOR TRANSPORT TIME STEP   1 IN FLOW TIME STEP  10 STRESS PERIOD   2
     8 TOTAL ITERATIONS
  MAXIMUM CONCENTRATION CHANGES FOR EACH ITERATION:
  MAX. CHANGE LAYER,ROW,COL MAX. CHANGE LAYER,ROW,COL MAX. CHANGE LAYER,ROW,COL MAX. CHANGE LAYER,ROW,COL MAX. CHANGE LAYER,ROW,COL
 ------------------------------------------------------------------------------------------------------------------------------------
   0.4180E-01 (  1,  1, 49)  0.4887E-03 (  1,  1, 50)  0.5750E-02 (  1,  1, 30)  0.9120E-04 (  2,  1, 30)  0.4187E-04 (  1,  1, 71)
   0.2872E-05 (  1,  1, 71)  0.2039E-06 (  1,  1, 30)  0.2864E-07 (  2,  1, 50)

 NO OUTPUT CONTROL FOR STRESS PERIOD    2   TIME STEP  10


                                          ================================================
                                                         FROM TIME =   3652.5     TO    4017.8    

 
 SOLVING FOR HEAD 
 FLOW MODEL IS STEADY-STATE
 FLOW MODEL CONTAINS CONSTANT-HEAD CELLS


 MAXIMUM STEPSIZE DURING WHICH ANY PARTICLE CANNOT MOVE MORE THAN ONE CELL
 =  494.4    (WHEN MIN. R.F.=1)  AT K=   2, I=   1, J=  30

 MAXIMUM STEPSIZE WHICH MEETS STABILITY CRITERION OF THE ADVECTION TERM
 (FOR PURE FINITE-DIFFERENCE OPTION, MIXELM=0) 
 =  324.8    (WHEN MIN. R.F.=1)  AT K=   2, I=   1, J=  30


 TOTAL NUMBER OF POINT SOURCES/SINKS PRESENT IN THE FLOW MODEL =    63

 MAXIMUM STEPSIZE WHICH MEETS STABILITY CRITERION OF THE SINK & SOURCE TERM
 =  3500.    (WHEN MIN. R.F.=1)  AT K=   1, I=   1, J=  31

 MAXIMUM STEPSIZE WHICH MEETS STABILITY CRITERION OF THE DISPERSION TERM
 =  3107.    (WHEN MIN. R.F.=1)  AT K=   1, I=   1, J=  30


     1 CALLS TO GCG PACKAGE FOR TRANSPORT TIME STEP   1 IN FLOW TIME STEP  11 STRESS PERIOD   2
     8 TOTAL ITERATIONS
  MAXIMUM CONCENTRATION CHANGES FOR EACH ITERATION:
  MAX. CHANGE LAYER,ROW,COL MAX. CHANGE LAYER,ROW,COL MAX. CHANGE LAYER,ROW,COL MAX. CHANGE LAYER,ROW,COL MAX. CHANGE LAYER,ROW,COL
 ------------------------------------------------------------------------------------------------------------------------------------
   0.3796E-01 (  1,  1, 49)  0.2554E-02 (  1,  1, 50)  0.3380E-02 (  1,  1, 30)  0.9546E-04 (  2,  1, 30)  0.4436E-04 (  1,  1, 71)
   0.2610E-05 (  1,  1, 71)  0.4615E-06 (  1,  1, 71)  0.2311E-07 (  4,  1, 50)

 NO OUTPUT CONTROL FOR STRESS PERIOD    2   TIME STEP  11


                                          ================================================
                                                         FROM TIME =   4017.8     TO    4383.0    

 
 SOLVING FOR HEAD 
 FLOW MODEL IS STEADY-STATE
 FLOW MODEL CONTAINS CONSTANT-HEAD CELLS


 MAXIMUM STEPSIZE DURING WHICH ANY PARTICLE CANNOT MOVE MORE THAN ONE CELL
 =  486.6    (WHEN MIN. R.F.=1)  AT K=   2, I=   1, J=  30

 MAXIMUM STEPSIZE WHICH MEETS STABILITY CRITERION OF THE ADVECTION TERM
 (FOR PURE FINITE-DIFFERENCE OPTION, MIXELM=0) 
 =  319.1    (WHEN MIN. R.F.=1)  AT K=   2, I=   1, J=  30


 TOTAL NUMBER OF POINT SOURCES/SINKS PRESENT IN THE FLOW MODEL =    63

 MAXIMUM STEPSIZE WHICH MEETS STABILITY CRITERION OF THE SINK & SOURCE TERM
 =  3500.    (WHEN MIN. R.F.=1)  AT K=   1, I=   1, J=  31

 MAXIMUM STEPSIZE WHICH MEETS STABILITY CRITERION OF THE DISPERSION TERM
 =  3050.    (WHEN MIN. R.F.=1)  AT K=   1, I=   1, J=  30


     1 CALLS TO GCG PACKAGE FOR TRANSPORT TIME STEP   1 IN FLOW TIME STEP  12 STRESS PERIOD   2
     8 TOTAL ITERATIONS
  MAXIMUM CONCENTRATION CHANGES FOR EACH ITERATION:
  MAX. CHANGE LAYER,ROW,COL MAX. CHANGE LAYER,ROW,COL MAX. CHANGE LAYER,ROW,COL MAX. CHANGE LAYER,ROW,COL MAX. CHANGE LAYER,ROW,COL
 ------------------------------------------------------------------------------------------------------------------------------------
   0.3535E-01 (  2,  1, 50)  0.2886E-02 (  1,  1, 31)  0.2806E-02 (  1,  1, 30)  0.1033E-03 (  1,  1, 71)  0.4681E-04 (  1,  1, 71)
   0.2441E-05 (  1,  1, 71)  0.6496E-06 (  1,  1, 71)  0.1974E-07 (  4,  1, 50)

 NO OUTPUT CONTROL FOR STRESS PERIOD    2   TIME STEP  12


                                          ================================================
                                                         FROM TIME =   4383.0     TO    4748.3    

 
 SOLVING FOR HEAD 
 FLOW MODEL IS STEADY-STATE
 FLOW MODEL CONTAINS CONSTANT-HEAD CELLS


 MAXIMUM STEPSIZE DURING WHICH ANY PARTICLE CANNOT MOVE MORE THAN ONE CELL
 =  479.1    (WHEN MIN. R.F.=1)  AT K=   2, I=   1, J=  30

 MAXIMUM STEPSIZE WHICH MEETS STABILITY CRITERION OF THE ADVECTION TERM
 (FOR PURE FINITE-DIFFERENCE OPTION, MIXELM=0) 
 =  313.5    (WHEN MIN. R.F.=1)  AT K=   2, I=   1, J=  30


 TOTAL NUMBER OF POINT SOURCES/SINKS PRESENT IN THE FLOW MODEL =    63

 MAXIMUM STEPSIZE WHICH MEETS STABILITY CRITERION OF THE SINK & SOURCE TERM
 =  3500.    (WHEN MIN. R.F.=1)  AT K=   1, I=   1, J=  31

 MAXIMUM STEPSIZE WHICH MEETS STABILITY CRITERION OF THE DISPERSION TERM
 =  2996.    (WHEN MIN. R.F.=1)  AT K=   1, I=   1, J=  30


     1 CALLS TO GCG PACKAGE FOR TRANSPORT TIME STEP   1 IN FLOW TIME STEP  13 STRESS PERIOD   2
     8 TOTAL ITERATIONS

 NO OUTPUT CONTROL FOR STRESS PERIOD    2   TIME STEP  13
 
 SOLVING FOR HEAD 
 FLOW MODEL IS STEADY-STATE
 FLOW MODEL CONTAINS CONSTANT-HEAD CELLS


 MAXIMUM STEPSIZE DURING WHICH ANY PARTICLE CANNOT MOVE MORE THAN ONE CELL
 =  471.9    (WHEN MIN. R.F.=1)  AT K=   2, I=   1, J=  30

 MAXIMUM STEPSIZE WHICH MEETS STABILITY CRITERION OF THE ADVECTION TERM
 (FOR PURE FINITE-DIFFERENCE OPTION, MIXELM=0) 
 =  308.2    (WHEN MIN. R.F.=1)  AT K=   2, I=   1, J=  30


 TOTAL NUMBER OF POINT SOURCES/SINKS PRESENT IN THE FLOW MODEL =    63

 MAXIMUM STEPSIZE WHICH MEETS STABILITY CRITERION OF THE SINK & SOURCE TERM
 =  3500.    (WHEN MIN. R.F.=1)  AT K=   1, I=   1, J=  31

 MAXIMUM STEPSIZE WHICH MEETS STABILITY CRITERION OF THE DISPERSION TERM
 =  2944.    (WHEN MIN. R.F.=1)  AT K=   1, I=   1, J=  30
     1 CALLS TO GCG PACKAGE FOR TRANSPORT TIME STEP   2 IN FLOW TIME STEP  13 STRESS PERIOD   2
     2 TOTAL ITERATIONS
  MAXIMUM CONCENTRATION CHANGES FOR EACH ITERATION:
  MAX. CHANGE LAYER,ROW,COL MAX. CHANGE LAYER,ROW,COL MAX. CHANGE LAYER,ROW,COL MAX. CHANGE LAYER,ROW,COL MAX. CHANGE LAYER,ROW,COL
 ------------------------------------------------------------------------------------------------------------------------------------
   0.2991E-04 (  2,  1, 46)  0.1046E-07 (  1,  1, 30)


                                          ================================================
                                                         FROM TIME =   4748.3     TO    5113.5    

 
 SOLVING FOR HEAD 
 FLOW MODEL IS STEADY-STATE
 FLOW MODEL CONTAINS CONSTANT-HEAD CELLS


 MAXIMUM STEPSIZE DURING WHICH ANY PARTICLE CANNOT MOVE MORE THAN ONE CELL
 =  471.9    (WHEN MIN. R.F.=1)  AT K=   2, I=   1, J=  71

 MAXIMUM STEPSIZE WHICH MEETS STABILITY CRITERION OF THE ADVECTION TERM
 (FOR PURE FINITE-DIFFERENCE OPTION, MIXELM=0) 
 =  308.2    (WHEN MIN. R.F.=1)  AT K=   2, I=   1, J=  30


 TOTAL NUMBER OF POINT SOURCES/SINKS PRESENT IN THE FLOW MODEL =    63

 MAXIMUM STEPSIZE WHICH MEETS STABILITY CRITERION OF THE SINK & SOURCE TERM
 =  3500.    (WHEN MIN. R.F.=1)  AT K=   1, I=   1, J=  31

 MAXIMUM STEPSIZE WHICH MEETS STABILITY CRITERION OF THE DISPERSION TERM
 =  2944.    (WHEN MIN. R.F.=1)  AT K=   1, I=   1, J=  30


     1 CALLS TO GCG PACKAGE FOR TRANSPORT TIME STEP   1 IN FLOW TIME STEP  14 STRESS PERIOD   2
     8 TOTAL ITERATIONS

 NO OUTPUT CONTROL FOR STRESS PERIOD    2   TIME STEP  14
 
 SOLVING FOR HEAD 
 FLOW MODEL IS STEADY-STATE
 FLOW MODEL CONTAINS CONSTANT-HEAD CELLS


 MAXIMUM STEPSIZE DURING WHICH ANY PARTICLE CANNOT MOVE MORE THAN ONE CELL
 =  465.1    (WHEN MIN. R.F.=1)  AT K=   2, I=   1, J=  71

 MAXIMUM STEPSIZE WHICH MEETS STABILITY CRITERION OF THE ADVECTION TERM
 (FOR PURE FINITE-DIFFERENCE OPTION, MIXELM=0) 
 =  303.1    (WHEN MIN. R.F.=1)  AT K=   2, I=   1, J=  30


 TOTAL NUMBER OF POINT SOURCES/SINKS PRESENT IN THE FLOW MODEL =    63

 MAXIMUM STEPSIZE WHICH MEETS STABILITY CRITERION OF THE SINK & SOURCE TERM
 =  3500.    (WHEN MIN. R.F.=1)  AT K=   1, I=   1, J=  31

 MAXIMUM STEPSIZE WHICH MEETS STABILITY CRITERION OF THE DISPERSION TERM
 =  2895.    (WHEN MIN. R.F.=1)  AT K=   1, I=   1, J=  30
     1 CALLS TO GCG PACKAGE FOR TRANSPORT TIME STEP   2 IN FLOW TIME STEP  14 STRESS PERIOD   2
     4 TOTAL ITERATIONS
  MAXIMUM CONCENTRATION CHANGES FOR EACH ITERATION:
  MAX. CHANGE LAYER,ROW,COL MAX. CHANGE LAYER,ROW,COL MAX. CHANGE LAYER,ROW,COL MAX. CHANGE LAYER,ROW,COL MAX. CHANGE LAYER,ROW,COL
 ------------------------------------------------------------------------------------------------------------------------------------
   0.1026E-02 (  2,  1, 55)  0.1190E-04 (  1,  1, 30)  0.1116E-06 (  1,  1, 71)  0.5814E-08 (  1,  1, 71)


                                          ================================================
                                                         FROM TIME =   5113.5     TO    5478.8    

 
 SOLVING FOR HEAD 
 FLOW MODEL IS STEADY-STATE
 FLOW MODEL CONTAINS CONSTANT-HEAD CELLS


 MAXIMUM STEPSIZE DURING WHICH ANY PARTICLE CANNOT MOVE MORE THAN ONE CELL
 =  464.9    (WHEN MIN. R.F.=1)  AT K=   2, I=   1, J=  71

 MAXIMUM STEPSIZE WHICH MEETS STABILITY CRITERION OF THE ADVECTION TERM
 (FOR PURE FINITE-DIFFERENCE OPTION, MIXELM=0) 
 =  303.0    (WHEN MIN. R.F.=1)  AT K=   2, I=   1, J=  30


 TOTAL NUMBER OF POINT SOURCES/SINKS PRESENT IN THE FLOW MODEL =    63

 MAXIMUM STEPSIZE WHICH MEETS STABILITY CRITERION OF THE SINK & SOURCE TERM
 =  3500.    (WHEN MIN. R.F.=1)  AT K=   1, I=   1, J=  31

 MAXIMUM STEPSIZE WHICH MEETS STABILITY CRITERION OF THE DISPERSION TERM
 =  2894.    (WHEN MIN. R.F.=1)  AT K=   1, I=   1, J=  30


     1 CALLS TO GCG PACKAGE FOR TRANSPORT TIME STEP   1 IN FLOW TIME STEP  15 STRESS PERIOD   2
     8 TOTAL ITERATIONS

 NO OUTPUT CONTROL FOR STRESS PERIOD    2   TIME STEP  15
 
 SOLVING FOR HEAD 
 FLOW MODEL IS STEADY-STATE
 FLOW MODEL CONTAINS CONSTANT-HEAD CELLS


 MAXIMUM STEPSIZE DURING WHICH ANY PARTICLE CANNOT MOVE MORE THAN ONE CELL
 =  458.4    (WHEN MIN. R.F.=1)  AT K=   2, I=   1, J=  30

 MAXIMUM STEPSIZE WHICH MEETS STABILITY CRITERION OF THE ADVECTION TERM
 (FOR PURE FINITE-DIFFERENCE OPTION, MIXELM=0) 
 =  298.1    (WHEN MIN. R.F.=1)  AT K=   2, I=   1, J=  30


 TOTAL NUMBER OF POINT SOURCES/SINKS PRESENT IN THE FLOW MODEL =    63

 MAXIMUM STEPSIZE WHICH MEETS STABILITY CRITERION OF THE SINK & SOURCE TERM
 =  3500.    (WHEN MIN. R.F.=1)  AT K=   1, I=   1, J=  31

 MAXIMUM STEPSIZE WHICH MEETS STABILITY CRITERION OF THE DISPERSION TERM
 =  2848.    (WHEN MIN. R.F.=1)  AT K=   1, I=   1, J=  30
     1 CALLS TO GCG PACKAGE FOR TRANSPORT TIME STEP   2 IN FLOW TIME STEP  15 STRESS PERIOD   2
     4 TOTAL ITERATIONS
  MAXIMUM CONCENTRATION CHANGES FOR EACH ITERATION:
  MAX. CHANGE LAYER,ROW,COL MAX. CHANGE LAYER,ROW,COL MAX. CHANGE LAYER,ROW,COL MAX. CHANGE LAYER,ROW,COL MAX. CHANGE LAYER,ROW,COL
 ------------------------------------------------------------------------------------------------------------------------------------
   0.1441E-02 (  2,  1, 55)  0.2371E-04 (  1,  1, 30)  0.3169E-06 (  1,  1, 71)  0.3589E-07 (  1,  1, 71)


                                          ================================================
                                                         FROM TIME =   5478.8     TO    5844.0    

 
 SOLVING FOR HEAD 
 FLOW MODEL IS STEADY-STATE
 FLOW MODEL CONTAINS CONSTANT-HEAD CELLS


 MAXIMUM STEPSIZE DURING WHICH ANY PARTICLE CANNOT MOVE MORE THAN ONE CELL
 =  458.1    (WHEN MIN. R.F.=1)  AT K=   2, I=   1, J=  30

 MAXIMUM STEPSIZE WHICH MEETS STABILITY CRITERION OF THE ADVECTION TERM
 (FOR PURE FINITE-DIFFERENCE OPTION, MIXELM=0) 
 =  297.9    (WHEN MIN. R.F.=1)  AT K=   2, I=   1, J=  30


 TOTAL NUMBER OF POINT SOURCES/SINKS PRESENT IN THE FLOW MODEL =    63

 MAXIMUM STEPSIZE WHICH MEETS STABILITY CRITERION OF THE SINK & SOURCE TERM
 =  3500.    (WHEN MIN. R.F.=1)  AT K=   1, I=   1, J=  31

 MAXIMUM STEPSIZE WHICH MEETS STABILITY CRITERION OF THE DISPERSION TERM
 =  2846.    (WHEN MIN. R.F.=1)  AT K=   1, I=   1, J=  30


     1 CALLS TO GCG PACKAGE FOR TRANSPORT TIME STEP   1 IN FLOW TIME STEP  16 STRESS PERIOD   2
     8 TOTAL ITERATIONS

 NO OUTPUT CONTROL FOR STRESS PERIOD    2   TIME STEP  16
 
 SOLVING FOR HEAD 
 FLOW MODEL IS STEADY-STATE
 FLOW MODEL CONTAINS CONSTANT-HEAD CELLS


 MAXIMUM STEPSIZE DURING WHICH ANY PARTICLE CANNOT MOVE MORE THAN ONE CELL
 =  452.0    (WHEN MIN. R.F.=1)  AT K=   2, I=   1, J=  30

 MAXIMUM STEPSIZE WHICH MEETS STABILITY CRITERION OF THE ADVECTION TERM
 (FOR PURE FINITE-DIFFERENCE OPTION, MIXELM=0) 
 =  293.3    (WHEN MIN. R.F.=1)  AT K=   2, I=   1, J=  30


 TOTAL NUMBER OF POINT SOURCES/SINKS PRESENT IN THE FLOW MODEL =    63

 MAXIMUM STEPSIZE WHICH MEETS STABILITY CRITERION OF THE SINK & SOURCE TERM
 =  3500.    (WHEN MIN. R.F.=1)  AT K=   1, I=   1, J=  31

 MAXIMUM STEPSIZE WHICH MEETS STABILITY CRITERION OF THE DISPERSION TERM
 =  2802.    (WHEN MIN. R.F.=1)  AT K=   1, I=   1, J=  30
     1 CALLS TO GCG PACKAGE FOR TRANSPORT TIME STEP   2 IN FLOW TIME STEP  16 STRESS PERIOD   2
     5 TOTAL ITERATIONS
  MAXIMUM CONCENTRATION CHANGES FOR EACH ITERATION:
  MAX. CHANGE LAYER,ROW,COL MAX. CHANGE LAYER,ROW,COL MAX. CHANGE LAYER,ROW,COL MAX. CHANGE LAYER,ROW,COL MAX. CHANGE LAYER,ROW,COL
 ------------------------------------------------------------------------------------------------------------------------------------
   0.1818E-02 (  2,  1, 46)  0.3840E-04 (  1,  1, 30)  0.5398E-06 (  1,  1, 71)  0.2283E-06 (  1,  1, 71)  0.3468E-09 (  1,  1, 71)


                                          ================================================
                                                         FROM TIME =   5844.0     TO    6209.3    

 
 SOLVING FOR HEAD 
 FLOW MODEL IS STEADY-STATE
 FLOW MODEL CONTAINS CONSTANT-HEAD CELLS


 MAXIMUM STEPSIZE DURING WHICH ANY PARTICLE CANNOT MOVE MORE THAN ONE CELL
 =  451.6    (WHEN MIN. R.F.=1)  AT K=   2, I=   1, J=  30

 MAXIMUM STEPSIZE WHICH MEETS STABILITY CRITERION OF THE ADVECTION TERM
 (FOR PURE FINITE-DIFFERENCE OPTION, MIXELM=0) 
 =  293.0    (WHEN MIN. R.F.=1)  AT K=   2, I=   1, J=  30


 TOTAL NUMBER OF POINT SOURCES/SINKS PRESENT IN THE FLOW MODEL =    63

 MAXIMUM STEPSIZE WHICH MEETS STABILITY CRITERION OF THE SINK & SOURCE TERM
 =  3500.    (WHEN MIN. R.F.=1)  AT K=   1, I=   1, J=  31

 MAXIMUM STEPSIZE WHICH MEETS STABILITY CRITERION OF THE DISPERSION TERM
 =  2800.    (WHEN MIN. R.F.=1)  AT K=   1, I=   1, J=  30


     1 CALLS TO GCG PACKAGE FOR TRANSPORT TIME STEP   1 IN FLOW TIME STEP  17 STRESS PERIOD   2
     8 TOTAL ITERATIONS

 NO OUTPUT CONTROL FOR STRESS PERIOD    2   TIME STEP  17
 
 SOLVING FOR HEAD 
 FLOW MODEL IS STEADY-STATE
 FLOW MODEL CONTAINS CONSTANT-HEAD CELLS


 MAXIMUM STEPSIZE DURING WHICH ANY PARTICLE CANNOT MOVE MORE THAN ONE CELL
 =  445.8    (WHEN MIN. R.F.=1)  AT K=   2, I=   1, J=  30

 MAXIMUM STEPSIZE WHICH MEETS STABILITY CRITERION OF THE ADVECTION TERM
 (FOR PURE FINITE-DIFFERENCE OPTION, MIXELM=0) 
 =  288.6    (WHEN MIN. R.F.=1)  AT K=   2, I=   1, J=  30


 TOTAL NUMBER OF POINT SOURCES/SINKS PRESENT IN THE FLOW MODEL =    63

 MAXIMUM STEPSIZE WHICH MEETS STABILITY CRITERION OF THE SINK & SOURCE TERM
 =  3500.    (WHEN MIN. R.F.=1)  AT K=   1, I=   1, J=  31

 MAXIMUM STEPSIZE WHICH MEETS STABILITY CRITERION OF THE DISPERSION TERM
 =  2759.    (WHEN MIN. R.F.=1)  AT K=   1, I=   1, J=  30
     1 CALLS TO GCG PACKAGE FOR TRANSPORT TIME STEP   2 IN FLOW TIME STEP  17 STRESS PERIOD   2
     5 TOTAL ITERATIONS
  MAXIMUM CONCENTRATION CHANGES FOR EACH ITERATION:
  MAX. CHANGE LAYER,ROW,COL MAX. CHANGE LAYER,ROW,COL MAX. CHANGE LAYER,ROW,COL MAX. CHANGE LAYER,ROW,COL MAX. CHANGE LAYER,ROW,COL
 ------------------------------------------------------------------------------------------------------------------------------------
   0.2147E-02 (  2,  1, 47)  0.5500E-04 (  1,  1, 30)  0.4343E-05 (  1,  1, 71)  0.2947E-05 (  1,  1, 71)  0.9928E-09 (  1,  1, 71)


                                          ================================================
                                                         FROM TIME =   6209.3     TO    6574.5    

 
 SOLVING FOR HEAD 
 FLOW MODEL IS STEADY-STATE
 FLOW MODEL CONTAINS CONSTANT-HEAD CELLS


 MAXIMUM STEPSIZE DURING WHICH ANY PARTICLE CANNOT MOVE MORE THAN ONE CELL
 =  445.3    (WHEN MIN. R.F.=1)  AT K=   2, I=   1, J=  30

 MAXIMUM STEPSIZE WHICH MEETS STABILITY CRITERION OF THE ADVECTION TERM
 (FOR PURE FINITE-DIFFERENCE OPTION, MIXELM=0) 
 =  288.3    (WHEN MIN. R.F.=1)  AT K=   2, I=   1, J=  30


 TOTAL NUMBER OF POINT SOURCES/SINKS PRESENT IN THE FLOW MODEL =    63

 MAXIMUM STEPSIZE WHICH MEETS STABILITY CRITERION OF THE SINK & SOURCE TERM
 =  3500.    (WHEN MIN. R.F.=1)  AT K=   1, I=   1, J=  31

 MAXIMUM STEPSIZE WHICH MEETS STABILITY CRITERION OF THE DISPERSION TERM
 =  2756.    (WHEN MIN. R.F.=1)  AT K=   1, I=   1, J=  30


     1 CALLS TO GCG PACKAGE FOR TRANSPORT TIME STEP   1 IN FLOW TIME STEP  18 STRESS PERIOD   2
     8 TOTAL ITERATIONS

 NO OUTPUT CONTROL FOR STRESS PERIOD    2   TIME STEP  18
 
 SOLVING FOR HEAD 
 FLOW MODEL IS STEADY-STATE
 FLOW MODEL CONTAINS CONSTANT-HEAD CELLS


 MAXIMUM STEPSIZE DURING WHICH ANY PARTICLE CANNOT MOVE MORE THAN ONE CELL
 =  439.7    (WHEN MIN. R.F.=1)  AT K=   2, I=   1, J=  30

 MAXIMUM STEPSIZE WHICH MEETS STABILITY CRITERION OF THE ADVECTION TERM
 (FOR PURE FINITE-DIFFERENCE OPTION, MIXELM=0) 
 =  284.1    (WHEN MIN. R.F.=1)  AT K=   2, I=   1, J=  30


 TOTAL NUMBER OF POINT SOURCES/SINKS PRESENT IN THE FLOW MODEL =    63

 MAXIMUM STEPSIZE WHICH MEETS STABILITY CRITERION OF THE SINK & SOURCE TERM
 =  3500.    (WHEN MIN. R.F.=1)  AT K=   1, I=   1, J=  31

 MAXIMUM STEPSIZE WHICH MEETS STABILITY CRITERION OF THE DISPERSION TERM
 =  2717.    (WHEN MIN. R.F.=1)  AT K=   1, I=   1, J=  30
[...]
 (FOR PURE FINITE-DIFFERENCE OPTION, MIXELM=0) 
 =  144.1    (WHEN MIN. R.F.=1)  AT K=   2, I=   1, J=  30


 TOTAL NUMBER OF POINT SOURCES/SINKS PRESENT IN THE FLOW MODEL =    63

 MAXIMUM STEPSIZE WHICH MEETS STABILITY CRITERION OF THE SINK & SOURCE TERM
 =  754.8    (WHEN MIN. R.F.=1)  AT K=   1, I=   1, J=  29

 MAXIMUM STEPSIZE WHICH MEETS STABILITY CRITERION OF THE DISPERSION TERM
 =  1448.    (WHEN MIN. R.F.=1)  AT K=   1, I=   1, J=  30
     1 CALLS TO GCG PACKAGE FOR TRANSPORT TIME STEP   3 IN FLOW TIME STEP  21 STRESS PERIOD  21
     2 TOTAL ITERATIONS
  MAXIMUM CONCENTRATION CHANGES FOR EACH ITERATION:
  MAX. CHANGE LAYER,ROW,COL MAX. CHANGE LAYER,ROW,COL MAX. CHANGE LAYER,ROW,COL MAX. CHANGE LAYER,ROW,COL MAX. CHANGE LAYER,ROW,COL
 ------------------------------------------------------------------------------------------------------------------------------------
   0.1025E-05 (  9,  1, 51)  0.2111E-09 (  1,  1, 30)


                                          ================================================
                                                         FROM TIME =  0.18116E+06 TO   0.18153E+06

 
 SOLVING FOR HEAD 
 FLOW MODEL IS STEADY-STATE
 FLOW MODEL CONTAINS CONSTANT-HEAD CELLS


 MAXIMUM STEPSIZE DURING WHICH ANY PARTICLE CANNOT MOVE MORE THAN ONE CELL
 =  243.0    (WHEN MIN. R.F.=1)  AT K=   2, I=   1, J=  30

 MAXIMUM STEPSIZE WHICH MEETS STABILITY CRITERION OF THE ADVECTION TERM
 (FOR PURE FINITE-DIFFERENCE OPTION, MIXELM=0) 
 =  144.1    (WHEN MIN. R.F.=1)  AT K=   2, I=   1, J=  30


 TOTAL NUMBER OF POINT SOURCES/SINKS PRESENT IN THE FLOW MODEL =    63

 MAXIMUM STEPSIZE WHICH MEETS STABILITY CRITERION OF THE SINK & SOURCE TERM
 =  754.8    (WHEN MIN. R.F.=1)  AT K=   1, I=   1, J=  29

 MAXIMUM STEPSIZE WHICH MEETS STABILITY CRITERION OF THE DISPERSION TERM
 =  1448.    (WHEN MIN. R.F.=1)  AT K=   1, I=   1, J=  30


     1 CALLS TO GCG PACKAGE FOR TRANSPORT TIME STEP   1 IN FLOW TIME STEP  22 STRESS PERIOD  21
     5 TOTAL ITERATIONS

 NO OUTPUT CONTROL FOR STRESS PERIOD   21   TIME STEP  22
 
 SOLVING FOR HEAD 
 FLOW MODEL IS STEADY-STATE
 FLOW MODEL CONTAINS CONSTANT-HEAD CELLS


 MAXIMUM STEPSIZE DURING WHICH ANY PARTICLE CANNOT MOVE MORE THAN ONE CELL
 =  243.0    (WHEN MIN. R.F.=1)  AT K=   2, I=   1, J=  30

 MAXIMUM STEPSIZE WHICH MEETS STABILITY CRITERION OF THE ADVECTION TERM
 (FOR PURE FINITE-DIFFERENCE OPTION, MIXELM=0) 
 =  144.1    (WHEN MIN. R.F.=1)  AT K=   2, I=   1, J=  30


 TOTAL NUMBER OF POINT SOURCES/SINKS PRESENT IN THE FLOW MODEL =    63

 MAXIMUM STEPSIZE WHICH MEETS STABILITY CRITERION OF THE SINK & SOURCE TERM
 =  754.8    (WHEN MIN. R.F.=1)  AT K=   1, I=   1, J=  29

 MAXIMUM STEPSIZE WHICH MEETS STABILITY CRITERION OF THE DISPERSION TERM
 =  1448.    (WHEN MIN. R.F.=1)  AT K=   1, I=   1, J=  30
     1 CALLS TO GCG PACKAGE FOR TRANSPORT TIME STEP   2 IN FLOW TIME STEP  22 STRESS PERIOD  21
     5 TOTAL ITERATIONS
 
 SOLVING FOR HEAD 
 FLOW MODEL IS STEADY-STATE
 FLOW MODEL CONTAINS CONSTANT-HEAD CELLS


 MAXIMUM STEPSIZE DURING WHICH ANY PARTICLE CANNOT MOVE MORE THAN ONE CELL
 =  243.0    (WHEN MIN. R.F.=1)  AT K=   2, I=   1, J=  30

 MAXIMUM STEPSIZE WHICH MEETS STABILITY CRITERION OF THE ADVECTION TERM
 (FOR PURE FINITE-DIFFERENCE OPTION, MIXELM=0) 
 =  144.1    (WHEN MIN. R.F.=1)  AT K=   2, I=   1, J=  30


 TOTAL NUMBER OF POINT SOURCES/SINKS PRESENT IN THE FLOW MODEL =    63

 MAXIMUM STEPSIZE WHICH MEETS STABILITY CRITERION OF THE SINK & SOURCE TERM
 =  754.9    (WHEN MIN. R.F.=1)  AT K=   1, I=   1, J=  29

 MAXIMUM STEPSIZE WHICH MEETS STABILITY CRITERION OF THE DISPERSION TERM
 =  1448.    (WHEN MIN. R.F.=1)  AT K=   1, I=   1, J=  30
     1 CALLS TO GCG PACKAGE FOR TRANSPORT TIME STEP   3 IN FLOW TIME STEP  22 STRESS PERIOD  21
     2 TOTAL ITERATIONS
  MAXIMUM CONCENTRATION CHANGES FOR EACH ITERATION:
  MAX. CHANGE LAYER,ROW,COL MAX. CHANGE LAYER,ROW,COL MAX. CHANGE LAYER,ROW,COL MAX. CHANGE LAYER,ROW,COL MAX. CHANGE LAYER,ROW,COL
 ------------------------------------------------------------------------------------------------------------------------------------
   0.9910E-06 (  9,  1, 51)  0.1971E-09 (  1,  1, 30)


                                          ================================================
                                                         FROM TIME =  0.18153E+06 TO   0.18189E+06

 
 SOLVING FOR HEAD 
 FLOW MODEL IS STEADY-STATE
 FLOW MODEL CONTAINS CONSTANT-HEAD CELLS


 MAXIMUM STEPSIZE DURING WHICH ANY PARTICLE CANNOT MOVE MORE THAN ONE CELL
 =  243.0    (WHEN MIN. R.F.=1)  AT K=   2, I=   1, J=  30

 MAXIMUM STEPSIZE WHICH MEETS STABILITY CRITERION OF THE ADVECTION TERM
 (FOR PURE FINITE-DIFFERENCE OPTION, MIXELM=0) 
 =  144.1    (WHEN MIN. R.F.=1)  AT K=   2, I=   1, J=  30


 TOTAL NUMBER OF POINT SOURCES/SINKS PRESENT IN THE FLOW MODEL =    63

 MAXIMUM STEPSIZE WHICH MEETS STABILITY CRITERION OF THE SINK & SOURCE TERM
 =  754.9    (WHEN MIN. R.F.=1)  AT K=   1, I=   1, J=  29

 MAXIMUM STEPSIZE WHICH MEETS STABILITY CRITERION OF THE DISPERSION TERM
 =  1448.    (WHEN MIN. R.F.=1)  AT K=   1, I=   1, J=  30


     1 CALLS TO GCG PACKAGE FOR TRANSPORT TIME STEP   1 IN FLOW TIME STEP  23 STRESS PERIOD  21
     5 TOTAL ITERATIONS

 NO OUTPUT CONTROL FOR STRESS PERIOD   21   TIME STEP  23
 
 SOLVING FOR HEAD 
 FLOW MODEL IS STEADY-STATE
 FLOW MODEL CONTAINS CONSTANT-HEAD CELLS


 MAXIMUM STEPSIZE DURING WHICH ANY PARTICLE CANNOT MOVE MORE THAN ONE CELL
 =  243.0    (WHEN MIN. R.F.=1)  AT K=   2, I=   1, J=  30

 MAXIMUM STEPSIZE WHICH MEETS STABILITY CRITERION OF THE ADVECTION TERM
 (FOR PURE FINITE-DIFFERENCE OPTION, MIXELM=0) 
 =  144.1    (WHEN MIN. R.F.=1)  AT K=   2, I=   1, J=  30


 TOTAL NUMBER OF POINT SOURCES/SINKS PRESENT IN THE FLOW MODEL =    63

 MAXIMUM STEPSIZE WHICH MEETS STABILITY CRITERION OF THE SINK & SOURCE TERM
 =  754.9    (WHEN MIN. R.F.=1)  AT K=   1, I=   1, J=  29

 MAXIMUM STEPSIZE WHICH MEETS STABILITY CRITERION OF THE DISPERSION TERM
 =  1448.    (WHEN MIN. R.F.=1)  AT K=   1, I=   1, J=  30
     1 CALLS TO GCG PACKAGE FOR TRANSPORT TIME STEP   2 IN FLOW TIME STEP  23 STRESS PERIOD  21
     5 TOTAL ITERATIONS
 
 SOLVING FOR HEAD 
 FLOW MODEL IS STEADY-STATE
 FLOW MODEL CONTAINS CONSTANT-HEAD CELLS


 MAXIMUM STEPSIZE DURING WHICH ANY PARTICLE CANNOT MOVE MORE THAN ONE CELL
 =  243.0    (WHEN MIN. R.F.=1)  AT K=   2, I=   1, J=  30

 MAXIMUM STEPSIZE WHICH MEETS STABILITY CRITERION OF THE ADVECTION TERM
 (FOR PURE FINITE-DIFFERENCE OPTION, MIXELM=0) 
 =  144.1    (WHEN MIN. R.F.=1)  AT K=   2, I=   1, J=  30


 TOTAL NUMBER OF POINT SOURCES/SINKS PRESENT IN THE FLOW MODEL =    63

 MAXIMUM STEPSIZE WHICH MEETS STABILITY CRITERION OF THE SINK & SOURCE TERM
 =  754.9    (WHEN MIN. R.F.=1)  AT K=   1, I=   1, J=  29

 MAXIMUM STEPSIZE WHICH MEETS STABILITY CRITERION OF THE DISPERSION TERM
 =  1448.    (WHEN MIN. R.F.=1)  AT K=   1, I=   1, J=  30
     1 CALLS TO GCG PACKAGE FOR TRANSPORT TIME STEP   3 IN FLOW TIME STEP  23 STRESS PERIOD  21
     2 TOTAL ITERATIONS
  MAXIMUM CONCENTRATION CHANGES FOR EACH ITERATION:
  MAX. CHANGE LAYER,ROW,COL MAX. CHANGE LAYER,ROW,COL MAX. CHANGE LAYER,ROW,COL MAX. CHANGE LAYER,ROW,COL MAX. CHANGE LAYER,ROW,COL
 ------------------------------------------------------------------------------------------------------------------------------------
   0.9577E-06 (  9,  1, 51)  0.1839E-09 (  1,  1, 30)


                                          ================================================
                                                         FROM TIME =  0.18189E+06 TO   0.18226E+06

 
 SOLVING FOR HEAD 
 FLOW MODEL IS STEADY-STATE
 FLOW MODEL CONTAINS CONSTANT-HEAD CELLS


 MAXIMUM STEPSIZE DURING WHICH ANY PARTICLE CANNOT MOVE MORE THAN ONE CELL
 =  243.0    (WHEN MIN. R.F.=1)  AT K=   2, I=   1, J=  30

 MAXIMUM STEPSIZE WHICH MEETS STABILITY CRITERION OF THE ADVECTION TERM
 (FOR PURE FINITE-DIFFERENCE OPTION, MIXELM=0) 
 =  144.1    (WHEN MIN. R.F.=1)  AT K=   2, I=   1, J=  30


 TOTAL NUMBER OF POINT SOURCES/SINKS PRESENT IN THE FLOW MODEL =    63

 MAXIMUM STEPSIZE WHICH MEETS STABILITY CRITERION OF THE SINK & SOURCE TERM
 =  754.9    (WHEN MIN. R.F.=1)  AT K=   1, I=   1, J=  29

 MAXIMUM STEPSIZE WHICH MEETS STABILITY CRITERION OF THE DISPERSION TERM
 =  1448.    (WHEN MIN. R.F.=1)  AT K=   1, I=   1, J=  30


     1 CALLS TO GCG PACKAGE FOR TRANSPORT TIME STEP   1 IN FLOW TIME STEP  24 STRESS PERIOD  21
     5 TOTAL ITERATIONS

 NO OUTPUT CONTROL FOR STRESS PERIOD   21   TIME STEP  24
 
 SOLVING FOR HEAD 
 FLOW MODEL IS STEADY-STATE
 FLOW MODEL CONTAINS CONSTANT-HEAD CELLS


 MAXIMUM STEPSIZE DURING WHICH ANY PARTICLE CANNOT MOVE MORE THAN ONE CELL
 =  243.0    (WHEN MIN. R.F.=1)  AT K=   2, I=   1, J=  30

 MAXIMUM STEPSIZE WHICH MEETS STABILITY CRITERION OF THE ADVECTION TERM
 (FOR PURE FINITE-DIFFERENCE OPTION, MIXELM=0) 
 =  144.1    (WHEN MIN. R.F.=1)  AT K=   2, I=   1, J=  30


 TOTAL NUMBER OF POINT SOURCES/SINKS PRESENT IN THE FLOW MODEL =    63

 MAXIMUM STEPSIZE WHICH MEETS STABILITY CRITERION OF THE SINK & SOURCE TERM
 =  755.0    (WHEN MIN. R.F.=1)  AT K=   1, I=   1, J=  29

 MAXIMUM STEPSIZE WHICH MEETS STABILITY CRITERION OF THE DISPERSION TERM
 =  1448.    (WHEN MIN. R.F.=1)  AT K=   1, I=   1, J=  30
     1 CALLS TO GCG PACKAGE FOR TRANSPORT TIME STEP   2 IN FLOW TIME STEP  24 STRESS PERIOD  21
     5 TOTAL ITERATIONS
 
 SOLVING FOR HEAD 
 FLOW MODEL IS STEADY-STATE
 FLOW MODEL CONTAINS CONSTANT-HEAD CELLS


 MAXIMUM STEPSIZE DURING WHICH ANY PARTICLE CANNOT MOVE MORE THAN ONE CELL
 =  243.0    (WHEN MIN. R.F.=1)  AT K=   2, I=   1, J=  30

 MAXIMUM STEPSIZE WHICH MEETS STABILITY CRITERION OF THE ADVECTION TERM
 (FOR PURE FINITE-DIFFERENCE OPTION, MIXELM=0) 
 =  144.1    (WHEN MIN. R.F.=1)  AT K=   2, I=   1, J=  30


 TOTAL NUMBER OF POINT SOURCES/SINKS PRESENT IN THE FLOW MODEL =    63

 MAXIMUM STEPSIZE WHICH MEETS STABILITY CRITERION OF THE SINK & SOURCE TERM
 =  755.0    (WHEN MIN. R.F.=1)  AT K=   1, I=   1, J=  29

 MAXIMUM STEPSIZE WHICH MEETS STABILITY CRITERION OF THE DISPERSION TERM
 =  1448.    (WHEN MIN. R.F.=1)  AT K=   1, I=   1, J=  30
     1 CALLS TO GCG PACKAGE FOR TRANSPORT TIME STEP   3 IN FLOW TIME STEP  24 STRESS PERIOD  21
     2 TOTAL ITERATIONS
  MAXIMUM CONCENTRATION CHANGES FOR EACH ITERATION:
  MAX. CHANGE LAYER,ROW,COL MAX. CHANGE LAYER,ROW,COL MAX. CHANGE LAYER,ROW,COL MAX. CHANGE LAYER,ROW,COL MAX. CHANGE LAYER,ROW,COL
 ------------------------------------------------------------------------------------------------------------------------------------
   0.9251E-06 (  9,  1, 51)  0.1715E-09 (  1,  1, 30)


                                          ================================================
                                                         FROM TIME =  0.18226E+06 TO   0.18263E+06

 
 SOLVING FOR HEAD 
 FLOW MODEL IS STEADY-STATE
 FLOW MODEL CONTAINS CONSTANT-HEAD CELLS


 MAXIMUM STEPSIZE DURING WHICH ANY PARTICLE CANNOT MOVE MORE THAN ONE CELL
 =  243.0    (WHEN MIN. R.F.=1)  AT K=   2, I=   1, J=  30

 MAXIMUM STEPSIZE WHICH MEETS STABILITY CRITERION OF THE ADVECTION TERM
 (FOR PURE FINITE-DIFFERENCE OPTION, MIXELM=0) 
 =  144.1    (WHEN MIN. R.F.=1)  AT K=   2, I=   1, J=  30


 TOTAL NUMBER OF POINT SOURCES/SINKS PRESENT IN THE FLOW MODEL =    63

 MAXIMUM STEPSIZE WHICH MEETS STABILITY CRITERION OF THE SINK & SOURCE TERM
 =  755.0    (WHEN MIN. R.F.=1)  AT K=   1, I=   1, J=  29

 MAXIMUM STEPSIZE WHICH MEETS STABILITY CRITERION OF THE DISPERSION TERM
 =  1448.    (WHEN MIN. R.F.=1)  AT K=   1, I=   1, J=  30


     1 CALLS TO GCG PACKAGE FOR TRANSPORT TIME STEP   1 IN FLOW TIME STEP  25 STRESS PERIOD  21
     5 TOTAL ITERATIONS

 NO OUTPUT CONTROL FOR STRESS PERIOD   21   TIME STEP  25
 
 SOLVING FOR HEAD 
 FLOW MODEL IS STEADY-STATE
 FLOW MODEL CONTAINS CONSTANT-HEAD CELLS


 MAXIMUM STEPSIZE DURING WHICH ANY PARTICLE CANNOT MOVE MORE THAN ONE CELL
 =  243.0    (WHEN MIN. R.F.=1)  AT K=   2, I=   1, J=  30

 MAXIMUM STEPSIZE WHICH MEETS STABILITY CRITERION OF THE ADVECTION TERM
 (FOR PURE FINITE-DIFFERENCE OPTION, MIXELM=0) 
 =  144.1    (WHEN MIN. R.F.=1)  AT K=   2, I=   1, J=  30


 TOTAL NUMBER OF POINT SOURCES/SINKS PRESENT IN THE FLOW MODEL =    63

 MAXIMUM STEPSIZE WHICH MEETS STABILITY CRITERION OF THE SINK & SOURCE TERM
 =  755.0    (WHEN MIN. R.F.=1)  AT K=   1, I=   1, J=  29

 MAXIMUM STEPSIZE WHICH MEETS STABILITY CRITERION OF THE DISPERSION TERM
 =  1448.    (WHEN MIN. R.F.=1)  AT K=   1, I=   1, J=  30
     1 CALLS TO GCG PACKAGE FOR TRANSPORT TIME STEP   2 IN FLOW TIME STEP  25 STRESS PERIOD  21
     5 TOTAL ITERATIONS



 >>>>>>>>>>>>>>>>>>>>>>>>>>>>>>>>>>>>>>>>>>>>>>>>>>>>>>>FOR COMPONENT NO. 01<<<<<<<<<<<<<<<<<<<<<<<<<<<<<<<<<<<<<<<<<<<<<<<<<<<<<<<


                                            -------------------------------------------
                                                      TRANSPORT STEP NO.    2
                                            -------------------------------------------

 TOTAL ELAPSED TIME SINCE BEGINNING OF SIMULATION =   182620.0    D   
 .....................................................................

                     CUMULATIVE MASS BUDGETS AT END OF TRANSPORT STEP    2, TIME STEP   25, STRESS PERIOD   21
                     ------------------------------------------------------------------------------------------

                                                             IN                           OUT
                                                      ----------------             ----------------
                               CONSTANT CONCENTRATION:    0.000000                    0.000000    
                                        CONSTANT HEAD:   0.6693855E+10              -0.8420461E+10
                                                WELLS:    0.000000                   -5428784.    
                                             RECHARGE:    0.000000                    0.000000    
                               MASS STOR (FLOW MODEL):    0.000000                    0.000000    
                                MASS STORAGE (SOLUTE):   0.1963510E+10              -0.2314750E+09
                            ---------------------------------------------------------------------------
                                              [TOTAL]:   0.8657365E+10 KG           -0.8657365E+10 KG  

                                                          NET (IN - OUT):   -424.2803    
                                                   DISCREPANCY (PERCENT):  -0.4900801E-05
 
 SOLVING FOR HEAD 
 FLOW MODEL IS STEADY-STATE
 FLOW MODEL CONTAINS CONSTANT-HEAD CELLS


 MAXIMUM STEPSIZE DURING WHICH ANY PARTICLE CANNOT MOVE MORE THAN ONE CELL
 =  243.0    (WHEN MIN. R.F.=1)  AT K=   2, I=   1, J=  30

 MAXIMUM STEPSIZE WHICH MEETS STABILITY CRITERION OF THE ADVECTION TERM
 (FOR PURE FINITE-DIFFERENCE OPTION, MIXELM=0) 
 =  144.1    (WHEN MIN. R.F.=1)  AT K=   2, I=   1, J=  30


 TOTAL NUMBER OF POINT SOURCES/SINKS PRESENT IN THE FLOW MODEL =    63

 MAXIMUM STEPSIZE WHICH MEETS STABILITY CRITERION OF THE SINK & SOURCE TERM
 =  755.1    (WHEN MIN. R.F.=1)  AT K=   1, I=   1, J=  29

 MAXIMUM STEPSIZE WHICH MEETS STABILITY CRITERION OF THE DISPERSION TERM
 =  1448.    (WHEN MIN. R.F.=1)  AT K=   1, I=   1, J=  30
     1 CALLS TO GCG PACKAGE FOR TRANSPORT TIME STEP   3 IN FLOW TIME STEP  25 STRESS PERIOD  21
     2 TOTAL ITERATIONS
  MAXIMUM CONCENTRATION CHANGES FOR EACH ITERATION:
  MAX. CHANGE LAYER,ROW,COL MAX. CHANGE LAYER,ROW,COL MAX. CHANGE LAYER,ROW,COL MAX. CHANGE LAYER,ROW,COL MAX. CHANGE LAYER,ROW,COL
 ------------------------------------------------------------------------------------------------------------------------------------
   0.6408E-05 (  9,  1, 51)  0.7794E-08 (  1,  1, 30)



 >>>>>>>>>>>>>>>>>>>>>>>>>>>>>>>>>>>>>>>>>>>>>>>>>>>>>>>FOR COMPONENT NO. 01<<<<<<<<<<<<<<<<<<<<<<<<<<<<<<<<<<<<<<<<<<<<<<<<<<<<<<<


                                            -------------------------------------------
                                                      TRANSPORT STEP NO.    3
                                            -------------------------------------------

 TOTAL ELAPSED TIME SINCE BEGINNING OF SIMULATION =   182625.0    D   
 .....................................................................

                     CUMULATIVE MASS BUDGETS AT END OF TRANSPORT STEP    3, TIME STEP   25, STRESS PERIOD   21
                     ------------------------------------------------------------------------------------------

                                                             IN                           OUT
                                                      ----------------             ----------------
                               CONSTANT CONCENTRATION:    0.000000                    0.000000    
                                        CONSTANT HEAD:   0.6694073E+10              -0.8420678E+10
                                                WELLS:    0.000000                   -5429069.    
                                             RECHARGE:    0.000000                    0.000000    
                               MASS STOR (FLOW MODEL):    0.000000                    0.000000    
                                MASS STORAGE (SOLUTE):   0.1963510E+10              -0.2314775E+09
                            ---------------------------------------------------------------------------
                                              [TOTAL]:   0.8657584E+10 KG           -0.8657584E+10 KG  

                                                          NET (IN - OUT):   -424.2780    
                                                   DISCREPANCY (PERCENT):  -0.4900652E-05
1
  MASS BUDGET FOR ENTIRE MODEL AT END OF TIME STEP 25 IN STRESS PERIOD  21
  ------------------------------------------------------------------------------

     CUMULATIVE MASS      M       RATES FOR THIS TIME STEP      M/T
     ------------------                 ------------------------

           IN:                                      IN:
           ---                                      ---
             STORAGE =           0.0000               STORAGE =           0.0000
       CONSTANT HEAD =   361017189.3382         CONSTANT HEAD =        2355.8544
               WELLS =           0.0000                 WELLS =           0.0000
            RECHARGE =   730500000.0000              RECHARGE =        4000.0000
                DCDT =     2558723.8373                  DCDT =           0.1075

            TOTAL IN =  1094075913.1755              TOTAL IN =        6355.9619

          OUT:                                     OUT:
          ----                                     ----
             STORAGE =           0.0000               STORAGE =           0.0000
       CONSTANT HEAD =  1025284331.6291         CONSTANT HEAD =        5605.2317
               WELLS =    68491423.5296                 WELLS =         750.0743
            RECHARGE =           0.0000              RECHARGE =           0.0000
                DCDT =      300157.7505                  DCDT =           0.6559

           TOTAL OUT =  1094075912.9092             TOTAL OUT =        6355.9619

            IN - OUT =           0.2663              IN - OUT =      -8.7317E-08

 PERCENT DISCREPANCY =           0.00     PERCENT DISCREPANCY =          -0.00



0


          TIME SUMMARY AT END OF TRANSPORT STEP    3 IN TIME STEP   25 IN STRESS PERIOD  21
                    SECONDS     MINUTES      HOURS       DAYS        YEARS
                    -----------------------------------------------------------
  TRANS STEP LENGTH 4.32000E+05  7200.0      120.00      5.0000     1.36893E-02
   TIME STEP LENGTH 3.15576E+07 5.25960E+05  8766.0      365.25     1.00000    
 STRESS PERIOD TIME 7.88940E+08 1.31490E+07 2.19150E+05  9131.2      25.000    
         TOTAL TIME 1.57788E+10 2.62980E+08 4.38300E+06 1.82625E+05  500.00    
1
